  Page 1                                    Mon Nov 13 05:42:31 2023

  ******************************************************************
  *                           E P A N E T                          *
  *                   Hydraulic and Water Quality                  *
  *                   Analysis for Pipe Networks                   *
  *                         Version 2.2                            *
  ******************************************************************
  
  Analysis begun Mon Nov 13 05:42:32 2023

   
  Hydraulic Status:
  -----------------------------------------------------------------------
     0:00:00: Balanced after 8 trials
     0:00:00: Reservoir node_2746 is emptying
     0:00:00: Reservoir node_2747 is emptying
   
     0:15:00: PRV link_2743 changed by rule link_2743_prv_setting_t_0.25
     0:15:00: PRV link_2729 changed by rule link_2729_prv_setting_t_0.25
     0:15:00: PRV link_2756 changed by rule link_2756_prv_setting_t_0.25
     0:15:00: TCV link_2748 changed by rule link_2748_control_setting_t_0.2
     0:15:00: TCV link_2747 changed by rule link_2747_control_setting_t_0.2
     0:15:00: Balanced after 3 trials
   
     0:30:00: PRV link_2743 changed by rule link_2743_prv_setting_t_0.5
     0:30:00: PRV link_2729 changed by rule link_2729_prv_setting_t_0.5
     0:30:00: PRV link_2756 changed by rule link_2756_prv_setting_t_0.5
     0:30:00: Balanced after 3 trials
   
     0:45:00: PRV link_2743 changed by rule link_2743_prv_setting_t_0.75
     0:45:00: PRV link_2729 changed by rule link_2729_prv_setting_t_0.75
     0:45:00: PRV link_2756 changed by rule link_2756_prv_setting_t_0.75
     0:45:00: Balanced after 3 trials
   
     1:00:00: PRV link_2743 changed by rule link_2743_prv_setting_t_1.0
     1:00:00: PRV link_2729 changed by rule link_2729_prv_setting_t_1.0
     1:00:00: PRV link_2756 changed by rule link_2756_prv_setting_t_1.0
     1:00:00: Balanced after 3 trials
   
     1:15:00: PRV link_2743 changed by rule link_2743_prv_setting_t_1.25
     1:15:00: PRV link_2729 changed by rule link_2729_prv_setting_t_1.25
     1:15:00: PRV link_2756 changed by rule link_2756_prv_setting_t_1.25
     1:15:00: Balanced after 3 trials
   
     1:30:00: PRV link_2743 changed by rule link_2743_prv_setting_t_1.5
     1:30:00: PRV link_2729 changed by rule link_2729_prv_setting_t_1.5
     1:30:00: PRV link_2756 changed by rule link_2756_prv_setting_t_1.5
     1:30:00: Balanced after 3 trials
   
     1:45:00: PRV link_2743 changed by rule link_2743_prv_setting_t_1.75
     1:45:00: PRV link_2729 changed by rule link_2729_prv_setting_t_1.75
     1:45:00: PRV link_2756 changed by rule link_2756_prv_setting_t_1.75
     1:45:00: Balanced after 3 trials
   
     2:00:00: PRV link_2743 changed by rule link_2743_prv_setting_t_2.0
     2:00:00: PRV link_2729 changed by rule link_2729_prv_setting_t_2.0
     2:00:00: PRV link_2756 changed by rule link_2756_prv_setting_t_2.0
     2:00:00: Balanced after 3 trials
   
     2:15:00: PRV link_2743 changed by rule link_2743_prv_setting_t_2.25
     2:15:00: PRV link_2729 changed by rule link_2729_prv_setting_t_2.25
     2:15:00: PRV link_2756 changed by rule link_2756_prv_setting_t_2.25
     2:15:00: Balanced after 3 trials
   
     2:30:00: PRV link_2743 changed by rule link_2743_prv_setting_t_2.5
     2:30:00: PRV link_2729 changed by rule link_2729_prv_setting_t_2.5
     2:30:00: PRV link_2756 changed by rule link_2756_prv_setting_t_2.5
     2:30:00: Balanced after 3 trials
   
     2:45:00: PRV link_2743 changed by rule link_2743_prv_setting_t_2.75
     2:45:00: PRV link_2729 changed by rule link_2729_prv_setting_t_2.75
     2:45:00: PRV link_2756 changed by rule link_2756_prv_setting_t_2.75
     2:45:00: Balanced after 3 trials
   
     3:00:00: PRV link_2743 changed by rule link_2743_prv_setting_t_3.0
     3:00:00: PRV link_2729 changed by rule link_2729_prv_setting_t_3.0
     3:00:00: PRV link_2756 changed by rule link_2756_prv_setting_t_3.0
     3:00:00: Balanced after 2 trials
   
     3:15:00: PRV link_2743 changed by rule link_2743_prv_setting_t_3.25
     3:15:00: PRV link_2729 changed by rule link_2729_prv_setting_t_3.25
     3:15:00: PRV link_2756 changed by rule link_2756_prv_setting_t_3.25
     3:15:00: Balanced after 2 trials
   
     3:30:00: PRV link_2743 changed by rule link_2743_prv_setting_t_3.5
     3:30:00: PRV link_2729 changed by rule link_2729_prv_setting_t_3.5
     3:30:00: PRV link_2756 changed by rule link_2756_prv_setting_t_3.5
     3:30:00: Balanced after 3 trials
   
     3:45:00: PRV link_2743 changed by rule link_2743_prv_setting_t_3.75
     3:45:00: PRV link_2729 changed by rule link_2729_prv_setting_t_3.75
     3:45:00: PRV link_2756 changed by rule link_2756_prv_setting_t_3.75
     3:45:00: Balanced after 3 trials
   
     4:00:00: PRV link_2743 changed by rule link_2743_prv_setting_t_4.0
     4:00:00: PRV link_2729 changed by rule link_2729_prv_setting_t_4.0
     4:00:00: PRV link_2756 changed by rule link_2756_prv_setting_t_4.0
     4:00:00: TCV link_2748 changed by rule link_2748_control_setting_t_4.0
     4:00:00: TCV link_2747 changed by rule link_2747_control_setting_t_4.0
     4:00:00: Balanced after 10 trials
   
     4:15:00: PRV link_2743 changed by rule link_2743_prv_setting_t_4.25
     4:15:00: PRV link_2729 changed by rule link_2729_prv_setting_t_4.25
     4:15:00: PRV link_2756 changed by rule link_2756_prv_setting_t_4.25
     4:15:00: Balanced after 3 trials
   
     4:30:00: PRV link_2743 changed by rule link_2743_prv_setting_t_4.5
     4:30:00: PRV link_2729 changed by rule link_2729_prv_setting_t_4.5
     4:30:00: PRV link_2756 changed by rule link_2756_prv_setting_t_4.5
     4:30:00: Balanced after 3 trials
   
     4:45:00: PRV link_2743 changed by rule link_2743_prv_setting_t_4.75
     4:45:00: PRV link_2729 changed by rule link_2729_prv_setting_t_4.75
     4:45:00: PRV link_2756 changed by rule link_2756_prv_setting_t_4.75
     4:45:00: Balanced after 3 trials
   
     5:00:00: PRV link_2743 changed by rule link_2743_prv_setting_t_5.0
     5:00:00: PRV link_2729 changed by rule link_2729_prv_setting_t_5.0
     5:00:00: PRV link_2756 changed by rule link_2756_prv_setting_t_5.0
     5:00:00: TCV link_2748 changed by rule link_2748_control_setting_t_5.0
     5:00:00: TCV link_2747 changed by rule link_2747_control_setting_t_5.0
     5:00:00: Balanced after 5 trials
   
     5:15:00: PRV link_2743 changed by rule link_2743_prv_setting_t_5.25
     5:15:00: PRV link_2729 changed by rule link_2729_prv_setting_t_5.25
     5:15:00: PRV link_2756 changed by rule link_2756_prv_setting_t_5.25
     5:15:00: Balanced after 2 trials
   
     5:30:00: PRV link_2743 changed by rule link_2743_prv_setting_t_5.5
     5:30:00: PRV link_2729 changed by rule link_2729_prv_setting_t_5.5
     5:30:00: PRV link_2756 changed by rule link_2756_prv_setting_t_5.5
     5:30:00: Balanced after 3 trials
   
     5:45:00: PRV link_2743 changed by rule link_2743_prv_setting_t_5.75
     5:45:00: PRV link_2729 changed by rule link_2729_prv_setting_t_5.75
     5:45:00: PRV link_2756 changed by rule link_2756_prv_setting_t_5.75
     5:45:00: Balanced after 3 trials
   
     6:00:00: PRV link_2743 changed by rule link_2743_prv_setting_t_6.0
     6:00:00: PRV link_2729 changed by rule link_2729_prv_setting_t_6.0
     6:00:00: PRV link_2756 changed by rule link_2756_prv_setting_t_6.0
     6:00:00: TCV link_2748 changed by rule link_2748_control_setting_t_6.0
     6:00:00: TCV link_2747 changed by rule link_2747_control_setting_t_6.0
     6:00:00: Balanced after 3 trials
   
     6:15:00: PRV link_2743 changed by rule link_2743_prv_setting_t_6.25
     6:15:00: PRV link_2729 changed by rule link_2729_prv_setting_t_6.25
     6:15:00: PRV link_2756 changed by rule link_2756_prv_setting_t_6.25
     6:15:00: Balanced after 3 trials
   
     6:30:00: PRV link_2743 changed by rule link_2743_prv_setting_t_6.5
     6:30:00: PRV link_2729 changed by rule link_2729_prv_setting_t_6.5
     6:30:00: PRV link_2756 changed by rule link_2756_prv_setting_t_6.5
     6:30:00: Balanced after 3 trials
   
     6:45:00: PRV link_2743 changed by rule link_2743_prv_setting_t_6.75
     6:45:00: PRV link_2729 changed by rule link_2729_prv_setting_t_6.75
     6:45:00: PRV link_2756 changed by rule link_2756_prv_setting_t_6.75
     6:45:00: Balanced after 3 trials
   
     7:00:00: PRV link_2743 changed by rule link_2743_prv_setting_t_7.0
     7:00:00: PRV link_2729 changed by rule link_2729_prv_setting_t_7.0
     7:00:00: PRV link_2756 changed by rule link_2756_prv_setting_t_7.0
     7:00:00: Balanced after 3 trials
   
     7:15:00: PRV link_2743 changed by rule link_2743_prv_setting_t_7.25
     7:15:00: PRV link_2729 changed by rule link_2729_prv_setting_t_7.25
     7:15:00: PRV link_2756 changed by rule link_2756_prv_setting_t_7.25
     7:15:00: Balanced after 3 trials
   
     7:30:00: PRV link_2743 changed by rule link_2743_prv_setting_t_7.5
     7:30:00: PRV link_2729 changed by rule link_2729_prv_setting_t_7.5
     7:30:00: PRV link_2756 changed by rule link_2756_prv_setting_t_7.5
     7:30:00: Balanced after 4 trials
   
     7:45:00: PRV link_2743 changed by rule link_2743_prv_setting_t_7.75
     7:45:00: PRV link_2729 changed by rule link_2729_prv_setting_t_7.75
     7:45:00: PRV link_2756 changed by rule link_2756_prv_setting_t_7.75
     7:45:00: Balanced after 3 trials
   
     8:00:00: PRV link_2743 changed by rule link_2743_prv_setting_t_8.0
     8:00:00: PRV link_2729 changed by rule link_2729_prv_setting_t_8.0
     8:00:00: PRV link_2756 changed by rule link_2756_prv_setting_t_8.0
     8:00:00: Balanced after 3 trials
   
     8:15:00: PRV link_2743 changed by rule link_2743_prv_setting_t_8.25
     8:15:00: PRV link_2729 changed by rule link_2729_prv_setting_t_8.25
     8:15:00: PRV link_2756 changed by rule link_2756_prv_setting_t_8.25
     8:15:00: Balanced after 4 trials
   
     8:30:00: PRV link_2743 changed by rule link_2743_prv_setting_t_8.5
     8:30:00: PRV link_2729 changed by rule link_2729_prv_setting_t_8.5
     8:30:00: PRV link_2756 changed by rule link_2756_prv_setting_t_8.5
     8:30:00: Balanced after 3 trials
   
     8:45:00: PRV link_2743 changed by rule link_2743_prv_setting_t_8.75
     8:45:00: PRV link_2729 changed by rule link_2729_prv_setting_t_8.75
     8:45:00: PRV link_2756 changed by rule link_2756_prv_setting_t_8.75
     8:45:00: Balanced after 3 trials
   
     9:00:00: PRV link_2743 changed by rule link_2743_prv_setting_t_9.0
     9:00:00: PRV link_2729 changed by rule link_2729_prv_setting_t_9.0
     9:00:00: PRV link_2756 changed by rule link_2756_prv_setting_t_9.0
     9:00:00: Balanced after 3 trials
   
     9:15:00: PRV link_2743 changed by rule link_2743_prv_setting_t_9.25
     9:15:00: PRV link_2729 changed by rule link_2729_prv_setting_t_9.25
     9:15:00: PRV link_2756 changed by rule link_2756_prv_setting_t_9.25
     9:15:00: Balanced after 3 trials
   
     9:30:00: PRV link_2743 changed by rule link_2743_prv_setting_t_9.5
     9:30:00: PRV link_2729 changed by rule link_2729_prv_setting_t_9.5
     9:30:00: PRV link_2756 changed by rule link_2756_prv_setting_t_9.5
     9:30:00: Balanced after 3 trials
   
     9:45:00: PRV link_2743 changed by rule link_2743_prv_setting_t_9.75
     9:45:00: PRV link_2729 changed by rule link_2729_prv_setting_t_9.75
     9:45:00: PRV link_2756 changed by rule link_2756_prv_setting_t_9.75
     9:45:00: Balanced after 2 trials
   
    10:00:00: PRV link_2743 changed by rule link_2743_prv_setting_t_10.0
    10:00:00: PRV link_2729 changed by rule link_2729_prv_setting_t_10.0
    10:00:00: PRV link_2756 changed by rule link_2756_prv_setting_t_10.0
    10:00:00: Balanced after 2 trials
   
    10:15:00: PRV link_2743 changed by rule link_2743_prv_setting_t_10.25
    10:15:00: PRV link_2729 changed by rule link_2729_prv_setting_t_10.25
    10:15:00: PRV link_2756 changed by rule link_2756_prv_setting_t_10.25
    10:15:00: Balanced after 3 trials
   
    10:30:00: PRV link_2743 changed by rule link_2743_prv_setting_t_10.5
    10:30:00: PRV link_2729 changed by rule link_2729_prv_setting_t_10.5
    10:30:00: PRV link_2756 changed by rule link_2756_prv_setting_t_10.5
    10:30:00: Balanced after 2 trials
   
    10:45:00: PRV link_2743 changed by rule link_2743_prv_setting_t_10.75
    10:45:00: PRV link_2729 changed by rule link_2729_prv_setting_t_10.75
    10:45:00: PRV link_2756 changed by rule link_2756_prv_setting_t_10.75
    10:45:00: Balanced after 1 trials
   
    11:00:00: PRV link_2743 changed by rule link_2743_prv_setting_t_11.0
    11:00:00: PRV link_2729 changed by rule link_2729_prv_setting_t_11.0
    11:00:00: PRV link_2756 changed by rule link_2756_prv_setting_t_11.0
    11:00:00: Balanced after 3 trials
   
    11:15:00: PRV link_2743 changed by rule link_2743_prv_setting_t_11.25
    11:15:00: PRV link_2729 changed by rule link_2729_prv_setting_t_11.25
    11:15:00: PRV link_2756 changed by rule link_2756_prv_setting_t_11.25
    11:15:00: Balanced after 3 trials
   
    11:30:00: PRV link_2743 changed by rule link_2743_prv_setting_t_11.5
    11:30:00: PRV link_2729 changed by rule link_2729_prv_setting_t_11.5
    11:30:00: PRV link_2756 changed by rule link_2756_prv_setting_t_11.5
    11:30:00: Balanced after 2 trials
   
    11:45:00: PRV link_2743 changed by rule link_2743_prv_setting_t_11.75
    11:45:00: PRV link_2729 changed by rule link_2729_prv_setting_t_11.75
    11:45:00: PRV link_2756 changed by rule link_2756_prv_setting_t_11.75
    11:45:00: Balanced after 1 trials
   
    12:00:00: PRV link_2743 changed by rule link_2743_prv_setting_t_12.0
    12:00:00: PRV link_2729 changed by rule link_2729_prv_setting_t_12.0
    12:00:00: PRV link_2756 changed by rule link_2756_prv_setting_t_12.0
    12:00:00: Balanced after 2 trials
   
    12:15:00: PRV link_2743 changed by rule link_2743_prv_setting_t_12.25
    12:15:00: PRV link_2729 changed by rule link_2729_prv_setting_t_12.25
    12:15:00: PRV link_2756 changed by rule link_2756_prv_setting_t_12.25
    12:15:00: Balanced after 3 trials
   
    12:30:00: PRV link_2743 changed by rule link_2743_prv_setting_t_12.5
    12:30:00: PRV link_2729 changed by rule link_2729_prv_setting_t_12.5
    12:30:00: PRV link_2756 changed by rule link_2756_prv_setting_t_12.5
    12:30:00: Balanced after 2 trials
   
    12:45:00: PRV link_2743 changed by rule link_2743_prv_setting_t_12.75
    12:45:00: PRV link_2729 changed by rule link_2729_prv_setting_t_12.75
    12:45:00: PRV link_2756 changed by rule link_2756_prv_setting_t_12.75
    12:45:00: Balanced after 1 trials
   
    13:00:00: PRV link_2743 changed by rule link_2743_prv_setting_t_13.0
    13:00:00: PRV link_2729 changed by rule link_2729_prv_setting_t_13.0
    13:00:00: PRV link_2756 changed by rule link_2756_prv_setting_t_13.0
    13:00:00: Balanced after 2 trials
   
    13:15:00: PRV link_2743 changed by rule link_2743_prv_setting_t_13.25
    13:15:00: PRV link_2729 changed by rule link_2729_prv_setting_t_13.25
    13:15:00: PRV link_2756 changed by rule link_2756_prv_setting_t_13.25
    13:15:00: Balanced after 2 trials
   
    13:30:00: PRV link_2743 changed by rule link_2743_prv_setting_t_13.5
    13:30:00: PRV link_2729 changed by rule link_2729_prv_setting_t_13.5
    13:30:00: PRV link_2756 changed by rule link_2756_prv_setting_t_13.5
    13:30:00: Balanced after 2 trials
   
    13:45:00: PRV link_2743 changed by rule link_2743_prv_setting_t_13.75
    13:45:00: PRV link_2729 changed by rule link_2729_prv_setting_t_13.75
    13:45:00: PRV link_2756 changed by rule link_2756_prv_setting_t_13.75
    13:45:00: Balanced after 2 trials
   
    14:00:00: PRV link_2743 changed by rule link_2743_prv_setting_t_14.0
    14:00:00: PRV link_2729 changed by rule link_2729_prv_setting_t_14.0
    14:00:00: PRV link_2756 changed by rule link_2756_prv_setting_t_14.0
    14:00:00: Balanced after 2 trials
   
    14:15:00: PRV link_2743 changed by rule link_2743_prv_setting_t_14.25
    14:15:00: PRV link_2729 changed by rule link_2729_prv_setting_t_14.25
    14:15:00: PRV link_2756 changed by rule link_2756_prv_setting_t_14.25
    14:15:00: Balanced after 3 trials
   
    14:30:00: PRV link_2743 changed by rule link_2743_prv_setting_t_14.5
    14:30:00: PRV link_2729 changed by rule link_2729_prv_setting_t_14.5
    14:30:00: PRV link_2756 changed by rule link_2756_prv_setting_t_14.5
    14:30:00: Balanced after 3 trials
   
    14:45:00: PRV link_2743 changed by rule link_2743_prv_setting_t_14.75
    14:45:00: PRV link_2729 changed by rule link_2729_prv_setting_t_14.75
    14:45:00: PRV link_2756 changed by rule link_2756_prv_setting_t_14.75
    14:45:00: Balanced after 3 trials
   
    15:00:00: PRV link_2743 changed by rule link_2743_prv_setting_t_15.0
    15:00:00: PRV link_2729 changed by rule link_2729_prv_setting_t_15.0
    15:00:00: PRV link_2756 changed by rule link_2756_prv_setting_t_15.0
    15:00:00: Balanced after 2 trials
   
    15:15:00: PRV link_2743 changed by rule link_2743_prv_setting_t_15.25
    15:15:00: PRV link_2729 changed by rule link_2729_prv_setting_t_15.25
    15:15:00: PRV link_2756 changed by rule link_2756_prv_setting_t_15.25
    15:15:00: Balanced after 2 trials
   
    15:30:00: PRV link_2743 changed by rule link_2743_prv_setting_t_15.5
    15:30:00: PRV link_2729 changed by rule link_2729_prv_setting_t_15.5
    15:30:00: PRV link_2756 changed by rule link_2756_prv_setting_t_15.5
    15:30:00: Balanced after 3 trials
   
    15:45:00: PRV link_2743 changed by rule link_2743_prv_setting_t_15.75
    15:45:00: PRV link_2729 changed by rule link_2729_prv_setting_t_15.75
    15:45:00: PRV link_2756 changed by rule link_2756_prv_setting_t_15.75
    15:45:00: Balanced after 2 trials
   
    16:00:00: PRV link_2743 changed by rule link_2743_prv_setting_t_16.0
    16:00:00: PRV link_2729 changed by rule link_2729_prv_setting_t_16.0
    16:00:00: PRV link_2756 changed by rule link_2756_prv_setting_t_16.0
    16:00:00: Balanced after 1 trials
   
    16:15:00: PRV link_2743 changed by rule link_2743_prv_setting_t_16.25
    16:15:00: PRV link_2729 changed by rule link_2729_prv_setting_t_16.25
    16:15:00: PRV link_2756 changed by rule link_2756_prv_setting_t_16.25
    16:15:00: Balanced after 3 trials
   
    16:30:00: PRV link_2743 changed by rule link_2743_prv_setting_t_16.5
    16:30:00: PRV link_2729 changed by rule link_2729_prv_setting_t_16.5
    16:30:00: PRV link_2756 changed by rule link_2756_prv_setting_t_16.5
    16:30:00: Balanced after 2 trials
   
    16:45:00: PRV link_2743 changed by rule link_2743_prv_setting_t_16.75
    16:45:00: PRV link_2729 changed by rule link_2729_prv_setting_t_16.75
    16:45:00: PRV link_2756 changed by rule link_2756_prv_setting_t_16.75
    16:45:00: Balanced after 2 trials
   
    17:00:00: PRV link_2743 changed by rule link_2743_prv_setting_t_17.0
    17:00:00: PRV link_2729 changed by rule link_2729_prv_setting_t_17.0
    17:00:00: PRV link_2756 changed by rule link_2756_prv_setting_t_17.0
    17:00:00: Balanced after 2 trials
   
    17:15:00: PRV link_2743 changed by rule link_2743_prv_setting_t_17.25
    17:15:00: PRV link_2729 changed by rule link_2729_prv_setting_t_17.25
    17:15:00: PRV link_2756 changed by rule link_2756_prv_setting_t_17.25
    17:15:00: Balanced after 3 trials
   
    17:30:00: PRV link_2743 changed by rule link_2743_prv_setting_t_17.5
    17:30:00: PRV link_2729 changed by rule link_2729_prv_setting_t_17.5
    17:30:00: PRV link_2756 changed by rule link_2756_prv_setting_t_17.5
    17:30:00: Balanced after 3 trials
   
    17:45:00: PRV link_2743 changed by rule link_2743_prv_setting_t_17.75
    17:45:00: PRV link_2729 changed by rule link_2729_prv_setting_t_17.75
    17:45:00: PRV link_2756 changed by rule link_2756_prv_setting_t_17.75
    17:45:00: Balanced after 3 trials
   
    18:00:00: PRV link_2743 changed by rule link_2743_prv_setting_t_18.0
    18:00:00: PRV link_2729 changed by rule link_2729_prv_setting_t_18.0
    18:00:00: PRV link_2756 changed by rule link_2756_prv_setting_t_18.0
    18:00:00: Balanced after 3 trials
   
    18:15:00: PRV link_2743 changed by rule link_2743_prv_setting_t_18.25
    18:15:00: PRV link_2729 changed by rule link_2729_prv_setting_t_18.25
    18:15:00: PRV link_2756 changed by rule link_2756_prv_setting_t_18.25
    18:15:00: Balanced after 3 trials
   
    18:30:00: PRV link_2743 changed by rule link_2743_prv_setting_t_18.5
    18:30:00: PRV link_2729 changed by rule link_2729_prv_setting_t_18.5
    18:30:00: PRV link_2756 changed by rule link_2756_prv_setting_t_18.5
    18:30:00: Balanced after 4 trials
   
    18:45:00: PRV link_2743 changed by rule link_2743_prv_setting_t_18.75
    18:45:00: PRV link_2729 changed by rule link_2729_prv_setting_t_18.75
    18:45:00: PRV link_2756 changed by rule link_2756_prv_setting_t_18.75
    18:45:00: Balanced after 3 trials
   
    19:00:00: PRV link_2743 changed by rule link_2743_prv_setting_t_19.0
    19:00:00: PRV link_2729 changed by rule link_2729_prv_setting_t_19.0
    19:00:00: PRV link_2756 changed by rule link_2756_prv_setting_t_19.0
    19:00:00: Balanced after 4 trials
   
    19:15:00: PRV link_2743 changed by rule link_2743_prv_setting_t_19.25
    19:15:00: PRV link_2729 changed by rule link_2729_prv_setting_t_19.25
    19:15:00: PRV link_2756 changed by rule link_2756_prv_setting_t_19.25
    19:15:00: Balanced after 3 trials
   
    19:30:00: PRV link_2743 changed by rule link_2743_prv_setting_t_19.5
    19:30:00: PRV link_2729 changed by rule link_2729_prv_setting_t_19.5
    19:30:00: PRV link_2756 changed by rule link_2756_prv_setting_t_19.5
    19:30:00: Balanced after 3 trials
   
    19:45:00: PRV link_2743 changed by rule link_2743_prv_setting_t_19.75
    19:45:00: PRV link_2729 changed by rule link_2729_prv_setting_t_19.75
    19:45:00: PRV link_2756 changed by rule link_2756_prv_setting_t_19.75
    19:45:00: Balanced after 3 trials
   
    20:00:00: PRV link_2743 changed by rule link_2743_prv_setting_t_20.0
    20:00:00: PRV link_2729 changed by rule link_2729_prv_setting_t_20.0
    20:00:00: PRV link_2756 changed by rule link_2756_prv_setting_t_20.0
    20:00:00: Balanced after 3 trials
   
    20:15:00: PRV link_2743 changed by rule link_2743_prv_setting_t_20.25
    20:15:00: PRV link_2729 changed by rule link_2729_prv_setting_t_20.25
    20:15:00: PRV link_2756 changed by rule link_2756_prv_setting_t_20.25
    20:15:00: Balanced after 2 trials
   
    20:30:00: PRV link_2743 changed by rule link_2743_prv_setting_t_20.5
    20:30:00: PRV link_2729 changed by rule link_2729_prv_setting_t_20.5
    20:30:00: PRV link_2756 changed by rule link_2756_prv_setting_t_20.5
    20:30:00: Balanced after 2 trials
   
    20:45:00: PRV link_2743 changed by rule link_2743_prv_setting_t_20.75
    20:45:00: PRV link_2729 changed by rule link_2729_prv_setting_t_20.75
    20:45:00: PRV link_2756 changed by rule link_2756_prv_setting_t_20.75
    20:45:00: Balanced after 3 trials
   
    21:00:00: PRV link_2743 changed by rule link_2743_prv_setting_t_21.0
    21:00:00: PRV link_2729 changed by rule link_2729_prv_setting_t_21.0
    21:00:00: PRV link_2756 changed by rule link_2756_prv_setting_t_21.0
    21:00:00: Balanced after 3 trials
   
    21:15:00: PRV link_2743 changed by rule link_2743_prv_setting_t_21.25
    21:15:00: PRV link_2729 changed by rule link_2729_prv_setting_t_21.25
    21:15:00: PRV link_2756 changed by rule link_2756_prv_setting_t_21.25
    21:15:00: Balanced after 3 trials
   
    21:30:00: PRV link_2743 changed by rule link_2743_prv_setting_t_21.5
    21:30:00: PRV link_2729 changed by rule link_2729_prv_setting_t_21.5
    21:30:00: PRV link_2756 changed by rule link_2756_prv_setting_t_21.5
    21:30:00: Balanced after 3 trials
   
    21:45:00: PRV link_2743 changed by rule link_2743_prv_setting_t_21.75
    21:45:00: PRV link_2729 changed by rule link_2729_prv_setting_t_21.75
    21:45:00: PRV link_2756 changed by rule link_2756_prv_setting_t_21.75
    21:45:00: Balanced after 3 trials
   
    22:00:00: PRV link_2743 changed by rule link_2743_prv_setting_t_22.0
    22:00:00: PRV link_2729 changed by rule link_2729_prv_setting_t_22.0
    22:00:00: PRV link_2756 changed by rule link_2756_prv_setting_t_22.0
    22:00:00: TCV link_2748 changed by rule link_2748_control_setting_t_22.
    22:00:00: TCV link_2747 changed by rule link_2747_control_setting_t_22.
    22:00:00: Balanced after 3 trials
   
    22:15:00: PRV link_2743 changed by rule link_2743_prv_setting_t_22.25
    22:15:00: PRV link_2729 changed by rule link_2729_prv_setting_t_22.25
    22:15:00: PRV link_2756 changed by rule link_2756_prv_setting_t_22.25
    22:15:00: Balanced after 3 trials
   
    22:30:00: PRV link_2743 changed by rule link_2743_prv_setting_t_22.5
    22:30:00: PRV link_2729 changed by rule link_2729_prv_setting_t_22.5
    22:30:00: PRV link_2756 changed by rule link_2756_prv_setting_t_22.5
    22:30:00: Balanced after 3 trials
   
    22:45:00: PRV link_2743 changed by rule link_2743_prv_setting_t_22.75
    22:45:00: PRV link_2729 changed by rule link_2729_prv_setting_t_22.75
    22:45:00: PRV link_2756 changed by rule link_2756_prv_setting_t_22.75
    22:45:00: Balanced after 3 trials
   
    23:00:00: PRV link_2743 changed by rule link_2743_prv_setting_t_23.0
    23:00:00: PRV link_2729 changed by rule link_2729_prv_setting_t_23.0
    23:00:00: PRV link_2756 changed by rule link_2756_prv_setting_t_23.0
    23:00:00: TCV link_2748 changed by rule link_2748_control_setting_t_23.
    23:00:00: TCV link_2747 changed by rule link_2747_control_setting_t_23.
    23:00:00: Balanced after 6 trials
   
    23:15:00: PRV link_2729 changed by rule link_2729_prv_setting_t_23.25
    23:15:00: PRV link_2756 changed by rule link_2756_prv_setting_t_23.25
    23:15:00: Balanced after 3 trials
   
    23:30:00: PRV link_2743 changed by rule link_2743_prv_setting_t_23.5
    23:30:00: PRV link_2729 changed by rule link_2729_prv_setting_t_23.5
    23:30:00: PRV link_2756 changed by rule link_2756_prv_setting_t_23.5
    23:30:00: Balanced after 3 trials
   
    23:45:00: PRV link_2743 changed by rule link_2743_prv_setting_t_23.75
    23:45:00: PRV link_2729 changed by rule link_2729_prv_setting_t_23.75
    23:45:00: PRV link_2756 changed by rule link_2756_prv_setting_t_23.75
    23:45:00: Balanced after 3 trials
   
    24:00:00: PRV link_2743 changed by rule link_2743_prv_setting_t_24.0
    24:00:00: PRV link_2729 changed by rule link_2729_prv_setting_t_24.0
    24:00:00: PRV link_2756 changed by rule link_2756_prv_setting_t_24.0
    24:00:00: Balanced after 3 trials
   
    24:15:00: PRV link_2743 changed by rule link_2743_prv_setting_t_24.25
    24:15:00: PRV link_2729 changed by rule link_2729_prv_setting_t_24.25
    24:15:00: PRV link_2756 changed by rule link_2756_prv_setting_t_24.25
    24:15:00: Balanced after 3 trials
   
    24:30:00: PRV link_2743 changed by rule link_2743_prv_setting_t_24.5
    24:30:00: PRV link_2729 changed by rule link_2729_prv_setting_t_24.5
    24:30:00: PRV link_2756 changed by rule link_2756_prv_setting_t_24.5
    24:30:00: Balanced after 3 trials
   
    24:45:00: PRV link_2743 changed by rule link_2743_prv_setting_t_24.75
    24:45:00: PRV link_2729 changed by rule link_2729_prv_setting_t_24.75
    24:45:00: PRV link_2756 changed by rule link_2756_prv_setting_t_24.75
    24:45:00: Balanced after 3 trials
   
    25:00:00: PRV link_2743 changed by rule link_2743_prv_setting_t_25.0
    25:00:00: PRV link_2729 changed by rule link_2729_prv_setting_t_25.0
    25:00:00: PRV link_2756 changed by rule link_2756_prv_setting_t_25.0
    25:00:00: Balanced after 3 trials
   
    25:15:00: PRV link_2743 changed by rule link_2743_prv_setting_t_25.25
    25:15:00: PRV link_2729 changed by rule link_2729_prv_setting_t_25.25
    25:15:00: PRV link_2756 changed by rule link_2756_prv_setting_t_25.25
    25:15:00: Balanced after 3 trials
   
    25:30:00: PRV link_2743 changed by rule link_2743_prv_setting_t_25.5
    25:30:00: PRV link_2729 changed by rule link_2729_prv_setting_t_25.5
    25:30:00: PRV link_2756 changed by rule link_2756_prv_setting_t_25.5
    25:30:00: Balanced after 3 trials
   
    25:45:00: PRV link_2743 changed by rule link_2743_prv_setting_t_25.75
    25:45:00: PRV link_2729 changed by rule link_2729_prv_setting_t_25.75
    25:45:00: PRV link_2756 changed by rule link_2756_prv_setting_t_25.75
    25:45:00: Balanced after 3 trials
   
    26:00:00: PRV link_2743 changed by rule link_2743_prv_setting_t_26.0
    26:00:00: PRV link_2729 changed by rule link_2729_prv_setting_t_26.0
    26:00:00: PRV link_2756 changed by rule link_2756_prv_setting_t_26.0
    26:00:00: Balanced after 3 trials
   
    26:15:00: PRV link_2743 changed by rule link_2743_prv_setting_t_26.25
    26:15:00: PRV link_2729 changed by rule link_2729_prv_setting_t_26.25
    26:15:00: PRV link_2756 changed by rule link_2756_prv_setting_t_26.25
    26:15:00: Balanced after 3 trials
   
    26:30:00: PRV link_2743 changed by rule link_2743_prv_setting_t_26.5
    26:30:00: PRV link_2729 changed by rule link_2729_prv_setting_t_26.5
    26:30:00: PRV link_2756 changed by rule link_2756_prv_setting_t_26.5
    26:30:00: Balanced after 3 trials
   
    26:45:00: PRV link_2743 changed by rule link_2743_prv_setting_t_26.75
    26:45:00: PRV link_2729 changed by rule link_2729_prv_setting_t_26.75
    26:45:00: PRV link_2756 changed by rule link_2756_prv_setting_t_26.75
    26:45:00: Balanced after 3 trials
   
    27:00:00: PRV link_2743 changed by rule link_2743_prv_setting_t_27.0
    27:00:00: PRV link_2729 changed by rule link_2729_prv_setting_t_27.0
    27:00:00: PRV link_2756 changed by rule link_2756_prv_setting_t_27.0
    27:00:00: Balanced after 2 trials
   
    27:15:00: PRV link_2743 changed by rule link_2743_prv_setting_t_27.25
    27:15:00: PRV link_2729 changed by rule link_2729_prv_setting_t_27.25
    27:15:00: PRV link_2756 changed by rule link_2756_prv_setting_t_27.25
    27:15:00: Balanced after 2 trials
   
    27:30:00: PRV link_2743 changed by rule link_2743_prv_setting_t_27.5
    27:30:00: PRV link_2729 changed by rule link_2729_prv_setting_t_27.5
    27:30:00: PRV link_2756 changed by rule link_2756_prv_setting_t_27.5
    27:30:00: Balanced after 3 trials
   
    27:45:00: PRV link_2743 changed by rule link_2743_prv_setting_t_27.75
    27:45:00: PRV link_2729 changed by rule link_2729_prv_setting_t_27.75
    27:45:00: PRV link_2756 changed by rule link_2756_prv_setting_t_27.75
    27:45:00: Balanced after 3 trials
   
    28:00:00: PRV link_2743 changed by rule link_2743_prv_setting_t_28.0
    28:00:00: PRV link_2729 changed by rule link_2729_prv_setting_t_28.0
    28:00:00: PRV link_2756 changed by rule link_2756_prv_setting_t_28.0
    28:00:00: TCV link_2748 changed by rule link_2748_control_setting_t_28.
    28:00:00: TCV link_2747 changed by rule link_2747_control_setting_t_28.
    28:00:00: Balanced after 10 trials
   
    28:15:00: PRV link_2743 changed by rule link_2743_prv_setting_t_28.25
    28:15:00: PRV link_2729 changed by rule link_2729_prv_setting_t_28.25
    28:15:00: PRV link_2756 changed by rule link_2756_prv_setting_t_28.25
    28:15:00: Balanced after 3 trials
   
    28:30:00: PRV link_2743 changed by rule link_2743_prv_setting_t_28.5
    28:30:00: PRV link_2729 changed by rule link_2729_prv_setting_t_28.5
    28:30:00: PRV link_2756 changed by rule link_2756_prv_setting_t_28.5
    28:30:00: Balanced after 3 trials
   
    28:45:00: PRV link_2743 changed by rule link_2743_prv_setting_t_28.75
    28:45:00: PRV link_2729 changed by rule link_2729_prv_setting_t_28.75
    28:45:00: PRV link_2756 changed by rule link_2756_prv_setting_t_28.75
    28:45:00: Balanced after 3 trials
   
    29:00:00: PRV link_2743 changed by rule link_2743_prv_setting_t_29.0
    29:00:00: PRV link_2729 changed by rule link_2729_prv_setting_t_29.0
    29:00:00: PRV link_2756 changed by rule link_2756_prv_setting_t_29.0
    29:00:00: TCV link_2748 changed by rule link_2748_control_setting_t_29.
    29:00:00: TCV link_2747 changed by rule link_2747_control_setting_t_29.
    29:00:00: Balanced after 5 trials
   
    29:15:00: PRV link_2743 changed by rule link_2743_prv_setting_t_29.25
    29:15:00: PRV link_2729 changed by rule link_2729_prv_setting_t_29.25
    29:15:00: PRV link_2756 changed by rule link_2756_prv_setting_t_29.25
    29:15:00: Balanced after 2 trials
   
    29:30:00: PRV link_2743 changed by rule link_2743_prv_setting_t_29.5
    29:30:00: PRV link_2729 changed by rule link_2729_prv_setting_t_29.5
    29:30:00: PRV link_2756 changed by rule link_2756_prv_setting_t_29.5
    29:30:00: Balanced after 3 trials
   
    29:45:00: PRV link_2743 changed by rule link_2743_prv_setting_t_29.75
    29:45:00: PRV link_2729 changed by rule link_2729_prv_setting_t_29.75
    29:45:00: PRV link_2756 changed by rule link_2756_prv_setting_t_29.75
    29:45:00: Balanced after 3 trials
   
    30:00:00: PRV link_2743 changed by rule link_2743_prv_setting_t_30.0
    30:00:00: PRV link_2729 changed by rule link_2729_prv_setting_t_30.0
    30:00:00: PRV link_2756 changed by rule link_2756_prv_setting_t_30.0
    30:00:00: TCV link_2748 changed by rule link_2748_control_setting_t_30.
    30:00:00: TCV link_2747 changed by rule link_2747_control_setting_t_30.
    30:00:00: Balanced after 3 trials
   
    30:15:00: PRV link_2743 changed by rule link_2743_prv_setting_t_30.25
    30:15:00: PRV link_2729 changed by rule link_2729_prv_setting_t_30.25
    30:15:00: PRV link_2756 changed by rule link_2756_prv_setting_t_30.25
    30:15:00: Balanced after 3 trials
   
    30:30:00: PRV link_2743 changed by rule link_2743_prv_setting_t_30.5
    30:30:00: PRV link_2729 changed by rule link_2729_prv_setting_t_30.5
    30:30:00: PRV link_2756 changed by rule link_2756_prv_setting_t_30.5
    30:30:00: Balanced after 3 trials
   
    30:45:00: PRV link_2743 changed by rule link_2743_prv_setting_t_30.75
    30:45:00: PRV link_2729 changed by rule link_2729_prv_setting_t_30.75
    30:45:00: PRV link_2756 changed by rule link_2756_prv_setting_t_30.75
    30:45:00: Balanced after 3 trials
   
    31:00:00: PRV link_2743 changed by rule link_2743_prv_setting_t_31.0
    31:00:00: PRV link_2729 changed by rule link_2729_prv_setting_t_31.0
    31:00:00: PRV link_2756 changed by rule link_2756_prv_setting_t_31.0
    31:00:00: Balanced after 3 trials
   
    31:15:00: PRV link_2743 changed by rule link_2743_prv_setting_t_31.25
    31:15:00: PRV link_2729 changed by rule link_2729_prv_setting_t_31.25
    31:15:00: PRV link_2756 changed by rule link_2756_prv_setting_t_31.25
    31:15:00: Balanced after 3 trials
   
    31:30:00: PRV link_2743 changed by rule link_2743_prv_setting_t_31.5
    31:30:00: PRV link_2729 changed by rule link_2729_prv_setting_t_31.5
    31:30:00: PRV link_2756 changed by rule link_2756_prv_setting_t_31.5
    31:30:00: Balanced after 4 trials
   
    31:45:00: PRV link_2743 changed by rule link_2743_prv_setting_t_31.75
    31:45:00: PRV link_2729 changed by rule link_2729_prv_setting_t_31.75
    31:45:00: PRV link_2756 changed by rule link_2756_prv_setting_t_31.75
    31:45:00: Balanced after 3 trials
   
    32:00:00: PRV link_2743 changed by rule link_2743_prv_setting_t_32.0
    32:00:00: PRV link_2729 changed by rule link_2729_prv_setting_t_32.0
    32:00:00: PRV link_2756 changed by rule link_2756_prv_setting_t_32.0
    32:00:00: Balanced after 3 trials
   
    32:15:00: PRV link_2743 changed by rule link_2743_prv_setting_t_32.25
    32:15:00: PRV link_2729 changed by rule link_2729_prv_setting_t_32.25
    32:15:00: PRV link_2756 changed by rule link_2756_prv_setting_t_32.25
    32:15:00: Balanced after 4 trials
   
    32:30:00: PRV link_2743 changed by rule link_2743_prv_setting_t_32.5
    32:30:00: PRV link_2729 changed by rule link_2729_prv_setting_t_32.5
    32:30:00: PRV link_2756 changed by rule link_2756_prv_setting_t_32.5
    32:30:00: Balanced after 3 trials
   
    32:45:00: PRV link_2743 changed by rule link_2743_prv_setting_t_32.75
    32:45:00: PRV link_2729 changed by rule link_2729_prv_setting_t_32.75
    32:45:00: PRV link_2756 changed by rule link_2756_prv_setting_t_32.75
    32:45:00: Balanced after 3 trials
   
    33:00:00: PRV link_2743 changed by rule link_2743_prv_setting_t_33.0
    33:00:00: PRV link_2729 changed by rule link_2729_prv_setting_t_33.0
    33:00:00: PRV link_2756 changed by rule link_2756_prv_setting_t_33.0
    33:00:00: Balanced after 3 trials
   
    33:15:00: PRV link_2743 changed by rule link_2743_prv_setting_t_33.25
    33:15:00: PRV link_2729 changed by rule link_2729_prv_setting_t_33.25
    33:15:00: PRV link_2756 changed by rule link_2756_prv_setting_t_33.25
    33:15:00: Balanced after 3 trials
   
    33:30:00: PRV link_2743 changed by rule link_2743_prv_setting_t_33.5
    33:30:00: PRV link_2729 changed by rule link_2729_prv_setting_t_33.5
    33:30:00: PRV link_2756 changed by rule link_2756_prv_setting_t_33.5
    33:30:00: Balanced after 3 trials
   
    33:45:00: PRV link_2743 changed by rule link_2743_prv_setting_t_33.75
    33:45:00: PRV link_2729 changed by rule link_2729_prv_setting_t_33.75
    33:45:00: PRV link_2756 changed by rule link_2756_prv_setting_t_33.75
    33:45:00: Balanced after 2 trials
   
    34:00:00: PRV link_2743 changed by rule link_2743_prv_setting_t_34.0
    34:00:00: PRV link_2729 changed by rule link_2729_prv_setting_t_34.0
    34:00:00: PRV link_2756 changed by rule link_2756_prv_setting_t_34.0
    34:00:00: Balanced after 2 trials
   
    34:15:00: PRV link_2743 changed by rule link_2743_prv_setting_t_34.25
    34:15:00: PRV link_2729 changed by rule link_2729_prv_setting_t_34.25
    34:15:00: PRV link_2756 changed by rule link_2756_prv_setting_t_34.25
    34:15:00: Balanced after 3 trials
   
    34:30:00: PRV link_2743 changed by rule link_2743_prv_setting_t_34.5
    34:30:00: PRV link_2729 changed by rule link_2729_prv_setting_t_34.5
    34:30:00: PRV link_2756 changed by rule link_2756_prv_setting_t_34.5
    34:30:00: Balanced after 2 trials
   
    34:45:00: PRV link_2743 changed by rule link_2743_prv_setting_t_34.75
    34:45:00: PRV link_2729 changed by rule link_2729_prv_setting_t_34.75
    34:45:00: PRV link_2756 changed by rule link_2756_prv_setting_t_34.75
    34:45:00: Balanced after 1 trials
   
    35:00:00: PRV link_2743 changed by rule link_2743_prv_setting_t_35.0
    35:00:00: PRV link_2729 changed by rule link_2729_prv_setting_t_35.0
    35:00:00: PRV link_2756 changed by rule link_2756_prv_setting_t_35.0
    35:00:00: Balanced after 3 trials
   
    35:15:00: PRV link_2743 changed by rule link_2743_prv_setting_t_35.25
    35:15:00: PRV link_2729 changed by rule link_2729_prv_setting_t_35.25
    35:15:00: PRV link_2756 changed by rule link_2756_prv_setting_t_35.25
    35:15:00: Balanced after 3 trials
   
    35:30:00: PRV link_2743 changed by rule link_2743_prv_setting_t_35.5
    35:30:00: PRV link_2729 changed by rule link_2729_prv_setting_t_35.5
    35:30:00: PRV link_2756 changed by rule link_2756_prv_setting_t_35.5
    35:30:00: Balanced after 2 trials
   
    35:45:00: PRV link_2743 changed by rule link_2743_prv_setting_t_35.75
    35:45:00: PRV link_2729 changed by rule link_2729_prv_setting_t_35.75
    35:45:00: PRV link_2756 changed by rule link_2756_prv_setting_t_35.75
    35:45:00: Balanced after 1 trials
   
    36:00:00: PRV link_2743 changed by rule link_2743_prv_setting_t_36.0
    36:00:00: PRV link_2729 changed by rule link_2729_prv_setting_t_36.0
    36:00:00: PRV link_2756 changed by rule link_2756_prv_setting_t_36.0
    36:00:00: Balanced after 2 trials
   
    36:15:00: PRV link_2743 changed by rule link_2743_prv_setting_t_36.25
    36:15:00: PRV link_2729 changed by rule link_2729_prv_setting_t_36.25
    36:15:00: PRV link_2756 changed by rule link_2756_prv_setting_t_36.25
    36:15:00: Balanced after 3 trials
   
    36:30:00: PRV link_2743 changed by rule link_2743_prv_setting_t_36.5
    36:30:00: PRV link_2729 changed by rule link_2729_prv_setting_t_36.5
    36:30:00: PRV link_2756 changed by rule link_2756_prv_setting_t_36.5
    36:30:00: Balanced after 2 trials
   
    36:45:00: PRV link_2743 changed by rule link_2743_prv_setting_t_36.75
    36:45:00: PRV link_2729 changed by rule link_2729_prv_setting_t_36.75
    36:45:00: PRV link_2756 changed by rule link_2756_prv_setting_t_36.75
    36:45:00: Balanced after 1 trials
   
    37:00:00: PRV link_2743 changed by rule link_2743_prv_setting_t_37.0
    37:00:00: PRV link_2729 changed by rule link_2729_prv_setting_t_37.0
    37:00:00: PRV link_2756 changed by rule link_2756_prv_setting_t_37.0
    37:00:00: Balanced after 2 trials
   
    37:15:00: PRV link_2743 changed by rule link_2743_prv_setting_t_37.25
    37:15:00: PRV link_2729 changed by rule link_2729_prv_setting_t_37.25
    37:15:00: PRV link_2756 changed by rule link_2756_prv_setting_t_37.25
    37:15:00: Balanced after 2 trials
   
    37:30:00: PRV link_2743 changed by rule link_2743_prv_setting_t_37.5
    37:30:00: PRV link_2729 changed by rule link_2729_prv_setting_t_37.5
    37:30:00: PRV link_2756 changed by rule link_2756_prv_setting_t_37.5
    37:30:00: Balanced after 2 trials
   
    37:45:00: PRV link_2743 changed by rule link_2743_prv_setting_t_37.75
    37:45:00: PRV link_2729 changed by rule link_2729_prv_setting_t_37.75
    37:45:00: PRV link_2756 changed by rule link_2756_prv_setting_t_37.75
    37:45:00: Balanced after 2 trials
   
    38:00:00: PRV link_2743 changed by rule link_2743_prv_setting_t_38.0
    38:00:00: PRV link_2729 changed by rule link_2729_prv_setting_t_38.0
    38:00:00: PRV link_2756 changed by rule link_2756_prv_setting_t_38.0
    38:00:00: Balanced after 2 trials
   
    38:15:00: PRV link_2743 changed by rule link_2743_prv_setting_t_38.25
    38:15:00: PRV link_2729 changed by rule link_2729_prv_setting_t_38.25
    38:15:00: PRV link_2756 changed by rule link_2756_prv_setting_t_38.25
    38:15:00: Balanced after 3 trials
   
    38:30:00: PRV link_2743 changed by rule link_2743_prv_setting_t_38.5
    38:30:00: PRV link_2729 changed by rule link_2729_prv_setting_t_38.5
    38:30:00: PRV link_2756 changed by rule link_2756_prv_setting_t_38.5
    38:30:00: Balanced after 3 trials
   
    38:45:00: PRV link_2743 changed by rule link_2743_prv_setting_t_38.75
    38:45:00: PRV link_2729 changed by rule link_2729_prv_setting_t_38.75
    38:45:00: PRV link_2756 changed by rule link_2756_prv_setting_t_38.75
    38:45:00: Balanced after 3 trials
   
    39:00:00: PRV link_2743 changed by rule link_2743_prv_setting_t_39.0
    39:00:00: PRV link_2729 changed by rule link_2729_prv_setting_t_39.0
    39:00:00: PRV link_2756 changed by rule link_2756_prv_setting_t_39.0
    39:00:00: Balanced after 2 trials
   
    39:15:00: PRV link_2743 changed by rule link_2743_prv_setting_t_39.25
    39:15:00: PRV link_2729 changed by rule link_2729_prv_setting_t_39.25
    39:15:00: PRV link_2756 changed by rule link_2756_prv_setting_t_39.25
    39:15:00: Balanced after 2 trials
   
    39:30:00: PRV link_2743 changed by rule link_2743_prv_setting_t_39.5
    39:30:00: PRV link_2729 changed by rule link_2729_prv_setting_t_39.5
    39:30:00: PRV link_2756 changed by rule link_2756_prv_setting_t_39.5
    39:30:00: Balanced after 3 trials
   
    39:45:00: PRV link_2743 changed by rule link_2743_prv_setting_t_39.75
    39:45:00: PRV link_2729 changed by rule link_2729_prv_setting_t_39.75
    39:45:00: PRV link_2756 changed by rule link_2756_prv_setting_t_39.75
    39:45:00: Balanced after 2 trials
   
    40:00:00: PRV link_2743 changed by rule link_2743_prv_setting_t_40.0
    40:00:00: PRV link_2729 changed by rule link_2729_prv_setting_t_40.0
    40:00:00: PRV link_2756 changed by rule link_2756_prv_setting_t_40.0
    40:00:00: Balanced after 1 trials
   
    40:15:00: PRV link_2743 changed by rule link_2743_prv_setting_t_40.25
    40:15:00: PRV link_2729 changed by rule link_2729_prv_setting_t_40.25
    40:15:00: PRV link_2756 changed by rule link_2756_prv_setting_t_40.25
    40:15:00: Balanced after 3 trials
   
    40:30:00: PRV link_2743 changed by rule link_2743_prv_setting_t_40.5
    40:30:00: PRV link_2729 changed by rule link_2729_prv_setting_t_40.5
    40:30:00: PRV link_2756 changed by rule link_2756_prv_setting_t_40.5
    40:30:00: Balanced after 2 trials
   
    40:45:00: PRV link_2743 changed by rule link_2743_prv_setting_t_40.75
    40:45:00: PRV link_2729 changed by rule link_2729_prv_setting_t_40.75
    40:45:00: PRV link_2756 changed by rule link_2756_prv_setting_t_40.75
    40:45:00: Balanced after 2 trials
   
    41:00:00: PRV link_2743 changed by rule link_2743_prv_setting_t_41.0
    41:00:00: PRV link_2729 changed by rule link_2729_prv_setting_t_41.0
    41:00:00: PRV link_2756 changed by rule link_2756_prv_setting_t_41.0
    41:00:00: Balanced after 2 trials
   
    41:15:00: PRV link_2743 changed by rule link_2743_prv_setting_t_41.25
    41:15:00: PRV link_2729 changed by rule link_2729_prv_setting_t_41.25
    41:15:00: PRV link_2756 changed by rule link_2756_prv_setting_t_41.25
    41:15:00: Balanced after 3 trials
   
    41:30:00: PRV link_2743 changed by rule link_2743_prv_setting_t_41.5
    41:30:00: PRV link_2729 changed by rule link_2729_prv_setting_t_41.5
    41:30:00: PRV link_2756 changed by rule link_2756_prv_setting_t_41.5
    41:30:00: Balanced after 3 trials
   
    41:45:00: PRV link_2743 changed by rule link_2743_prv_setting_t_41.75
    41:45:00: PRV link_2729 changed by rule link_2729_prv_setting_t_41.75
    41:45:00: PRV link_2756 changed by rule link_2756_prv_setting_t_41.75
    41:45:00: Balanced after 3 trials
   
    42:00:00: PRV link_2743 changed by rule link_2743_prv_setting_t_42.0
    42:00:00: PRV link_2729 changed by rule link_2729_prv_setting_t_42.0
    42:00:00: PRV link_2756 changed by rule link_2756_prv_setting_t_42.0
    42:00:00: Balanced after 3 trials
   
    42:15:00: PRV link_2743 changed by rule link_2743_prv_setting_t_42.25
    42:15:00: PRV link_2729 changed by rule link_2729_prv_setting_t_42.25
    42:15:00: PRV link_2756 changed by rule link_2756_prv_setting_t_42.25
    42:15:00: Balanced after 3 trials
   
    42:30:00: PRV link_2743 changed by rule link_2743_prv_setting_t_42.5
    42:30:00: PRV link_2729 changed by rule link_2729_prv_setting_t_42.5
    42:30:00: PRV link_2756 changed by rule link_2756_prv_setting_t_42.5
    42:30:00: Balanced after 4 trials
   
    42:45:00: PRV link_2743 changed by rule link_2743_prv_setting_t_42.75
    42:45:00: PRV link_2729 changed by rule link_2729_prv_setting_t_42.75
    42:45:00: PRV link_2756 changed by rule link_2756_prv_setting_t_42.75
    42:45:00: Balanced after 3 trials
   
    43:00:00: PRV link_2743 changed by rule link_2743_prv_setting_t_43.0
    43:00:00: PRV link_2729 changed by rule link_2729_prv_setting_t_43.0
    43:00:00: PRV link_2756 changed by rule link_2756_prv_setting_t_43.0
    43:00:00: Balanced after 4 trials
   
    43:15:00: PRV link_2743 changed by rule link_2743_prv_setting_t_43.25
    43:15:00: PRV link_2729 changed by rule link_2729_prv_setting_t_43.25
    43:15:00: PRV link_2756 changed by rule link_2756_prv_setting_t_43.25
    43:15:00: Balanced after 3 trials
   
    43:30:00: PRV link_2743 changed by rule link_2743_prv_setting_t_43.5
    43:30:00: PRV link_2729 changed by rule link_2729_prv_setting_t_43.5
    43:30:00: PRV link_2756 changed by rule link_2756_prv_setting_t_43.5
    43:30:00: Balanced after 3 trials
   
    43:45:00: PRV link_2743 changed by rule link_2743_prv_setting_t_43.75
    43:45:00: PRV link_2729 changed by rule link_2729_prv_setting_t_43.75
    43:45:00: PRV link_2756 changed by rule link_2756_prv_setting_t_43.75
    43:45:00: Balanced after 3 trials
   
    44:00:00: PRV link_2743 changed by rule link_2743_prv_setting_t_44.0
    44:00:00: PRV link_2729 changed by rule link_2729_prv_setting_t_44.0
    44:00:00: PRV link_2756 changed by rule link_2756_prv_setting_t_44.0
    44:00:00: Balanced after 3 trials
   
    44:15:00: PRV link_2743 changed by rule link_2743_prv_setting_t_44.25
    44:15:00: PRV link_2729 changed by rule link_2729_prv_setting_t_44.25
    44:15:00: PRV link_2756 changed by rule link_2756_prv_setting_t_44.25
    44:15:00: Balanced after 2 trials
   
    44:30:00: PRV link_2743 changed by rule link_2743_prv_setting_t_44.5
    44:30:00: PRV link_2729 changed by rule link_2729_prv_setting_t_44.5
    44:30:00: PRV link_2756 changed by rule link_2756_prv_setting_t_44.5
    44:30:00: Balanced after 2 trials
   
    44:45:00: PRV link_2743 changed by rule link_2743_prv_setting_t_44.75
    44:45:00: PRV link_2729 changed by rule link_2729_prv_setting_t_44.75
    44:45:00: PRV link_2756 changed by rule link_2756_prv_setting_t_44.75
    44:45:00: Balanced after 3 trials
   
    45:00:00: PRV link_2743 changed by rule link_2743_prv_setting_t_45.0
    45:00:00: PRV link_2729 changed by rule link_2729_prv_setting_t_45.0
    45:00:00: PRV link_2756 changed by rule link_2756_prv_setting_t_45.0
    45:00:00: Balanced after 3 trials
   
    45:15:00: PRV link_2743 changed by rule link_2743_prv_setting_t_45.25
    45:15:00: PRV link_2729 changed by rule link_2729_prv_setting_t_45.25
    45:15:00: PRV link_2756 changed by rule link_2756_prv_setting_t_45.25
    45:15:00: Balanced after 3 trials
   
    45:30:00: PRV link_2743 changed by rule link_2743_prv_setting_t_45.5
    45:30:00: PRV link_2729 changed by rule link_2729_prv_setting_t_45.5
    45:30:00: PRV link_2756 changed by rule link_2756_prv_setting_t_45.5
    45:30:00: Balanced after 3 trials
   
    45:45:00: PRV link_2743 changed by rule link_2743_prv_setting_t_45.75
    45:45:00: PRV link_2729 changed by rule link_2729_prv_setting_t_45.75
    45:45:00: PRV link_2756 changed by rule link_2756_prv_setting_t_45.75
    45:45:00: Balanced after 3 trials
   
    46:00:00: PRV link_2743 changed by rule link_2743_prv_setting_t_46.0
    46:00:00: PRV link_2729 changed by rule link_2729_prv_setting_t_46.0
    46:00:00: PRV link_2756 changed by rule link_2756_prv_setting_t_46.0
    46:00:00: TCV link_2748 changed by rule link_2748_control_setting_t_46.
    46:00:00: TCV link_2747 changed by rule link_2747_control_setting_t_46.
    46:00:00: Balanced after 3 trials
   
    46:15:00: PRV link_2743 changed by rule link_2743_prv_setting_t_46.25
    46:15:00: PRV link_2729 changed by rule link_2729_prv_setting_t_46.25
    46:15:00: PRV link_2756 changed by rule link_2756_prv_setting_t_46.25
    46:15:00: Balanced after 3 trials
   
    46:30:00: PRV link_2743 changed by rule link_2743_prv_setting_t_46.5
    46:30:00: PRV link_2729 changed by rule link_2729_prv_setting_t_46.5
    46:30:00: PRV link_2756 changed by rule link_2756_prv_setting_t_46.5
    46:30:00: Balanced after 3 trials
   
    46:45:00: PRV link_2743 changed by rule link_2743_prv_setting_t_46.75
    46:45:00: PRV link_2729 changed by rule link_2729_prv_setting_t_46.75
    46:45:00: PRV link_2756 changed by rule link_2756_prv_setting_t_46.75
    46:45:00: Balanced after 3 trials
   
    47:00:00: PRV link_2743 changed by rule link_2743_prv_setting_t_47.0
    47:00:00: PRV link_2729 changed by rule link_2729_prv_setting_t_47.0
    47:00:00: PRV link_2756 changed by rule link_2756_prv_setting_t_47.0
    47:00:00: TCV link_2748 changed by rule link_2748_control_setting_t_47.
    47:00:00: TCV link_2747 changed by rule link_2747_control_setting_t_47.
    47:00:00: Balanced after 6 trials
   
    47:15:00: PRV link_2729 changed by rule link_2729_prv_setting_t_47.25
    47:15:00: PRV link_2756 changed by rule link_2756_prv_setting_t_47.25
    47:15:00: Balanced after 3 trials
   
    47:30:00: PRV link_2743 changed by rule link_2743_prv_setting_t_47.5
    47:30:00: PRV link_2729 changed by rule link_2729_prv_setting_t_47.5
    47:30:00: PRV link_2756 changed by rule link_2756_prv_setting_t_47.5
    47:30:00: Balanced after 3 trials
   
    47:45:00: PRV link_2743 changed by rule link_2743_prv_setting_t_47.75
    47:45:00: PRV link_2729 changed by rule link_2729_prv_setting_t_47.75
    47:45:00: PRV link_2756 changed by rule link_2756_prv_setting_t_47.75
    47:45:00: Balanced after 3 trials
   
    48:00:00: PRV link_2743 changed by rule link_2743_prv_setting_t_48.0
    48:00:00: PRV link_2729 changed by rule link_2729_prv_setting_t_48.0
    48:00:00: PRV link_2756 changed by rule link_2756_prv_setting_t_48.0
    48:00:00: Balanced after 3 trials
   
    48:15:00: PRV link_2743 changed by rule link_2743_prv_setting_t_48.25
    48:15:00: PRV link_2729 changed by rule link_2729_prv_setting_t_48.25
    48:15:00: PRV link_2756 changed by rule link_2756_prv_setting_t_48.25
    48:15:00: Balanced after 3 trials
   
    48:30:00: PRV link_2743 changed by rule link_2743_prv_setting_t_48.5
    48:30:00: PRV link_2729 changed by rule link_2729_prv_setting_t_48.5
    48:30:00: PRV link_2756 changed by rule link_2756_prv_setting_t_48.5
    48:30:00: Balanced after 3 trials
   
    48:45:00: PRV link_2743 changed by rule link_2743_prv_setting_t_48.75
    48:45:00: PRV link_2729 changed by rule link_2729_prv_setting_t_48.75
    48:45:00: PRV link_2756 changed by rule link_2756_prv_setting_t_48.75
    48:45:00: Balanced after 3 trials
   
    49:00:00: PRV link_2743 changed by rule link_2743_prv_setting_t_49.0
    49:00:00: PRV link_2729 changed by rule link_2729_prv_setting_t_49.0
    49:00:00: PRV link_2756 changed by rule link_2756_prv_setting_t_49.0
    49:00:00: Balanced after 3 trials
   
    49:15:00: PRV link_2743 changed by rule link_2743_prv_setting_t_49.25
    49:15:00: PRV link_2729 changed by rule link_2729_prv_setting_t_49.25
    49:15:00: PRV link_2756 changed by rule link_2756_prv_setting_t_49.25
    49:15:00: Balanced after 3 trials
   
    49:30:00: PRV link_2743 changed by rule link_2743_prv_setting_t_49.5
    49:30:00: PRV link_2729 changed by rule link_2729_prv_setting_t_49.5
    49:30:00: PRV link_2756 changed by rule link_2756_prv_setting_t_49.5
    49:30:00: Balanced after 3 trials
   
    49:45:00: PRV link_2743 changed by rule link_2743_prv_setting_t_49.75
    49:45:00: PRV link_2729 changed by rule link_2729_prv_setting_t_49.75
    49:45:00: PRV link_2756 changed by rule link_2756_prv_setting_t_49.75
    49:45:00: Balanced after 3 trials
   
    50:00:00: PRV link_2743 changed by rule link_2743_prv_setting_t_50.0
    50:00:00: PRV link_2729 changed by rule link_2729_prv_setting_t_50.0
    50:00:00: PRV link_2756 changed by rule link_2756_prv_setting_t_50.0
    50:00:00: Balanced after 3 trials
   
    50:15:00: PRV link_2743 changed by rule link_2743_prv_setting_t_50.25
    50:15:00: PRV link_2729 changed by rule link_2729_prv_setting_t_50.25
    50:15:00: PRV link_2756 changed by rule link_2756_prv_setting_t_50.25
    50:15:00: Balanced after 3 trials
   
    50:30:00: PRV link_2743 changed by rule link_2743_prv_setting_t_50.5
    50:30:00: PRV link_2729 changed by rule link_2729_prv_setting_t_50.5
    50:30:00: PRV link_2756 changed by rule link_2756_prv_setting_t_50.5
    50:30:00: Balanced after 3 trials
   
    50:45:00: PRV link_2743 changed by rule link_2743_prv_setting_t_50.75
    50:45:00: PRV link_2729 changed by rule link_2729_prv_setting_t_50.75
    50:45:00: PRV link_2756 changed by rule link_2756_prv_setting_t_50.75
    50:45:00: Balanced after 3 trials
   
    51:00:00: PRV link_2743 changed by rule link_2743_prv_setting_t_51.0
    51:00:00: PRV link_2729 changed by rule link_2729_prv_setting_t_51.0
    51:00:00: PRV link_2756 changed by rule link_2756_prv_setting_t_51.0
    51:00:00: Balanced after 2 trials
   
    51:15:00: PRV link_2743 changed by rule link_2743_prv_setting_t_51.25
    51:15:00: PRV link_2729 changed by rule link_2729_prv_setting_t_51.25
    51:15:00: PRV link_2756 changed by rule link_2756_prv_setting_t_51.25
    51:15:00: Balanced after 2 trials
   
    51:30:00: PRV link_2743 changed by rule link_2743_prv_setting_t_51.5
    51:30:00: PRV link_2729 changed by rule link_2729_prv_setting_t_51.5
    51:30:00: PRV link_2756 changed by rule link_2756_prv_setting_t_51.5
    51:30:00: Balanced after 3 trials
   
    51:45:00: PRV link_2743 changed by rule link_2743_prv_setting_t_51.75
    51:45:00: PRV link_2729 changed by rule link_2729_prv_setting_t_51.75
    51:45:00: PRV link_2756 changed by rule link_2756_prv_setting_t_51.75
    51:45:00: Balanced after 3 trials
   
    52:00:00: PRV link_2743 changed by rule link_2743_prv_setting_t_52.0
    52:00:00: PRV link_2729 changed by rule link_2729_prv_setting_t_52.0
    52:00:00: PRV link_2756 changed by rule link_2756_prv_setting_t_52.0
    52:00:00: TCV link_2748 changed by rule link_2748_control_setting_t_52.
    52:00:00: TCV link_2747 changed by rule link_2747_control_setting_t_52.
    52:00:00: Balanced after 10 trials
   
    52:15:00: PRV link_2743 changed by rule link_2743_prv_setting_t_52.25
    52:15:00: PRV link_2729 changed by rule link_2729_prv_setting_t_52.25
    52:15:00: PRV link_2756 changed by rule link_2756_prv_setting_t_52.25
    52:15:00: Balanced after 3 trials
   
    52:30:00: PRV link_2743 changed by rule link_2743_prv_setting_t_52.5
    52:30:00: PRV link_2729 changed by rule link_2729_prv_setting_t_52.5
    52:30:00: PRV link_2756 changed by rule link_2756_prv_setting_t_52.5
    52:30:00: Balanced after 3 trials
   
    52:45:00: PRV link_2743 changed by rule link_2743_prv_setting_t_52.75
    52:45:00: PRV link_2729 changed by rule link_2729_prv_setting_t_52.75
    52:45:00: PRV link_2756 changed by rule link_2756_prv_setting_t_52.75
    52:45:00: Balanced after 3 trials
   
    53:00:00: PRV link_2743 changed by rule link_2743_prv_setting_t_53.0
    53:00:00: PRV link_2729 changed by rule link_2729_prv_setting_t_53.0
    53:00:00: PRV link_2756 changed by rule link_2756_prv_setting_t_53.0
    53:00:00: TCV link_2748 changed by rule link_2748_control_setting_t_53.
    53:00:00: TCV link_2747 changed by rule link_2747_control_setting_t_53.
    53:00:00: Balanced after 5 trials
   
    53:15:00: PRV link_2743 changed by rule link_2743_prv_setting_t_53.25
    53:15:00: PRV link_2729 changed by rule link_2729_prv_setting_t_53.25
    53:15:00: PRV link_2756 changed by rule link_2756_prv_setting_t_53.25
    53:15:00: Balanced after 2 trials
   
    53:30:00: PRV link_2743 changed by rule link_2743_prv_setting_t_53.5
    53:30:00: PRV link_2729 changed by rule link_2729_prv_setting_t_53.5
    53:30:00: PRV link_2756 changed by rule link_2756_prv_setting_t_53.5
    53:30:00: Balanced after 3 trials
   
    53:45:00: PRV link_2743 changed by rule link_2743_prv_setting_t_53.75
    53:45:00: PRV link_2729 changed by rule link_2729_prv_setting_t_53.75
    53:45:00: PRV link_2756 changed by rule link_2756_prv_setting_t_53.75
    53:45:00: Balanced after 3 trials
   
    54:00:00: PRV link_2743 changed by rule link_2743_prv_setting_t_54.0
    54:00:00: PRV link_2729 changed by rule link_2729_prv_setting_t_54.0
    54:00:00: PRV link_2756 changed by rule link_2756_prv_setting_t_54.0
    54:00:00: TCV link_2748 changed by rule link_2748_control_setting_t_54.
    54:00:00: TCV link_2747 changed by rule link_2747_control_setting_t_54.
    54:00:00: Balanced after 3 trials
   
    54:15:00: PRV link_2743 changed by rule link_2743_prv_setting_t_54.25
    54:15:00: PRV link_2729 changed by rule link_2729_prv_setting_t_54.25
    54:15:00: PRV link_2756 changed by rule link_2756_prv_setting_t_54.25
    54:15:00: Balanced after 3 trials
   
    54:30:00: PRV link_2743 changed by rule link_2743_prv_setting_t_54.5
    54:30:00: PRV link_2729 changed by rule link_2729_prv_setting_t_54.5
    54:30:00: PRV link_2756 changed by rule link_2756_prv_setting_t_54.5
    54:30:00: Balanced after 3 trials
   
    54:45:00: PRV link_2743 changed by rule link_2743_prv_setting_t_54.75
    54:45:00: PRV link_2729 changed by rule link_2729_prv_setting_t_54.75
    54:45:00: PRV link_2756 changed by rule link_2756_prv_setting_t_54.75
    54:45:00: Balanced after 3 trials
   
    55:00:00: PRV link_2743 changed by rule link_2743_prv_setting_t_55.0
    55:00:00: PRV link_2729 changed by rule link_2729_prv_setting_t_55.0
    55:00:00: PRV link_2756 changed by rule link_2756_prv_setting_t_55.0
    55:00:00: Balanced after 3 trials
   
    55:15:00: PRV link_2743 changed by rule link_2743_prv_setting_t_55.25
    55:15:00: PRV link_2729 changed by rule link_2729_prv_setting_t_55.25
    55:15:00: PRV link_2756 changed by rule link_2756_prv_setting_t_55.25
    55:15:00: Balanced after 3 trials
   
    55:30:00: PRV link_2743 changed by rule link_2743_prv_setting_t_55.5
    55:30:00: PRV link_2729 changed by rule link_2729_prv_setting_t_55.5
    55:30:00: PRV link_2756 changed by rule link_2756_prv_setting_t_55.5
    55:30:00: Balanced after 4 trials
   
    55:45:00: PRV link_2743 changed by rule link_2743_prv_setting_t_55.75
    55:45:00: PRV link_2729 changed by rule link_2729_prv_setting_t_55.75
    55:45:00: PRV link_2756 changed by rule link_2756_prv_setting_t_55.75
    55:45:00: Balanced after 3 trials
   
    56:00:00: PRV link_2743 changed by rule link_2743_prv_setting_t_56.0
    56:00:00: PRV link_2729 changed by rule link_2729_prv_setting_t_56.0
    56:00:00: PRV link_2756 changed by rule link_2756_prv_setting_t_56.0
    56:00:00: Balanced after 3 trials
   
    56:15:00: PRV link_2743 changed by rule link_2743_prv_setting_t_56.25
    56:15:00: PRV link_2729 changed by rule link_2729_prv_setting_t_56.25
    56:15:00: PRV link_2756 changed by rule link_2756_prv_setting_t_56.25
    56:15:00: Balanced after 4 trials
   
    56:30:00: PRV link_2743 changed by rule link_2743_prv_setting_t_56.5
    56:30:00: PRV link_2729 changed by rule link_2729_prv_setting_t_56.5
    56:30:00: PRV link_2756 changed by rule link_2756_prv_setting_t_56.5
    56:30:00: Balanced after 3 trials
   
    56:45:00: PRV link_2743 changed by rule link_2743_prv_setting_t_56.75
    56:45:00: PRV link_2729 changed by rule link_2729_prv_setting_t_56.75
    56:45:00: PRV link_2756 changed by rule link_2756_prv_setting_t_56.75
    56:45:00: Balanced after 3 trials
   
    57:00:00: PRV link_2743 changed by rule link_2743_prv_setting_t_57.0
    57:00:00: PRV link_2729 changed by rule link_2729_prv_setting_t_57.0
    57:00:00: PRV link_2756 changed by rule link_2756_prv_setting_t_57.0
    57:00:00: Balanced after 3 trials
   
    57:15:00: PRV link_2743 changed by rule link_2743_prv_setting_t_57.25
    57:15:00: PRV link_2729 changed by rule link_2729_prv_setting_t_57.25
    57:15:00: PRV link_2756 changed by rule link_2756_prv_setting_t_57.25
    57:15:00: Balanced after 3 trials
   
    57:30:00: PRV link_2743 changed by rule link_2743_prv_setting_t_57.5
    57:30:00: PRV link_2729 changed by rule link_2729_prv_setting_t_57.5
    57:30:00: PRV link_2756 changed by rule link_2756_prv_setting_t_57.5
    57:30:00: Balanced after 3 trials
   
    57:45:00: PRV link_2743 changed by rule link_2743_prv_setting_t_57.75
    57:45:00: PRV link_2729 changed by rule link_2729_prv_setting_t_57.75
    57:45:00: PRV link_2756 changed by rule link_2756_prv_setting_t_57.75
    57:45:00: Balanced after 2 trials
   
    58:00:00: PRV link_2743 changed by rule link_2743_prv_setting_t_58.0
    58:00:00: PRV link_2729 changed by rule link_2729_prv_setting_t_58.0
    58:00:00: PRV link_2756 changed by rule link_2756_prv_setting_t_58.0
    58:00:00: Balanced after 2 trials
   
    58:15:00: PRV link_2743 changed by rule link_2743_prv_setting_t_58.25
    58:15:00: PRV link_2729 changed by rule link_2729_prv_setting_t_58.25
    58:15:00: PRV link_2756 changed by rule link_2756_prv_setting_t_58.25
    58:15:00: Balanced after 3 trials
   
    58:30:00: PRV link_2743 changed by rule link_2743_prv_setting_t_58.5
    58:30:00: PRV link_2729 changed by rule link_2729_prv_setting_t_58.5
    58:30:00: PRV link_2756 changed by rule link_2756_prv_setting_t_58.5
    58:30:00: Balanced after 2 trials
   
    58:45:00: PRV link_2743 changed by rule link_2743_prv_setting_t_58.75
    58:45:00: PRV link_2729 changed by rule link_2729_prv_setting_t_58.75
    58:45:00: PRV link_2756 changed by rule link_2756_prv_setting_t_58.75
    58:45:00: Balanced after 1 trials
   
    59:00:00: PRV link_2743 changed by rule link_2743_prv_setting_t_59.0
    59:00:00: PRV link_2729 changed by rule link_2729_prv_setting_t_59.0
    59:00:00: PRV link_2756 changed by rule link_2756_prv_setting_t_59.0
    59:00:00: Balanced after 3 trials
   
    59:15:00: PRV link_2743 changed by rule link_2743_prv_setting_t_59.25
    59:15:00: PRV link_2729 changed by rule link_2729_prv_setting_t_59.25
    59:15:00: PRV link_2756 changed by rule link_2756_prv_setting_t_59.25
    59:15:00: Balanced after 3 trials
   
    59:30:00: PRV link_2743 changed by rule link_2743_prv_setting_t_59.5
    59:30:00: PRV link_2729 changed by rule link_2729_prv_setting_t_59.5
    59:30:00: PRV link_2756 changed by rule link_2756_prv_setting_t_59.5
    59:30:00: Balanced after 2 trials
   
    59:45:00: PRV link_2743 changed by rule link_2743_prv_setting_t_59.75
    59:45:00: PRV link_2729 changed by rule link_2729_prv_setting_t_59.75
    59:45:00: PRV link_2756 changed by rule link_2756_prv_setting_t_59.75
    59:45:00: Balanced after 1 trials
   
    60:00:00: PRV link_2743 changed by rule link_2743_prv_setting_t_60.0
    60:00:00: PRV link_2729 changed by rule link_2729_prv_setting_t_60.0
    60:00:00: PRV link_2756 changed by rule link_2756_prv_setting_t_60.0
    60:00:00: Balanced after 2 trials
   
    60:15:00: PRV link_2743 changed by rule link_2743_prv_setting_t_60.25
    60:15:00: PRV link_2729 changed by rule link_2729_prv_setting_t_60.25
    60:15:00: PRV link_2756 changed by rule link_2756_prv_setting_t_60.25
    60:15:00: Balanced after 3 trials
   
    60:30:00: PRV link_2743 changed by rule link_2743_prv_setting_t_60.5
    60:30:00: PRV link_2729 changed by rule link_2729_prv_setting_t_60.5
    60:30:00: PRV link_2756 changed by rule link_2756_prv_setting_t_60.5
    60:30:00: Balanced after 2 trials
   
    60:45:00: PRV link_2743 changed by rule link_2743_prv_setting_t_60.75
    60:45:00: PRV link_2729 changed by rule link_2729_prv_setting_t_60.75
    60:45:00: PRV link_2756 changed by rule link_2756_prv_setting_t_60.75
    60:45:00: Balanced after 1 trials
   
    61:00:00: PRV link_2743 changed by rule link_2743_prv_setting_t_61.0
    61:00:00: PRV link_2729 changed by rule link_2729_prv_setting_t_61.0
    61:00:00: PRV link_2756 changed by rule link_2756_prv_setting_t_61.0
    61:00:00: Balanced after 2 trials
   
    61:15:00: PRV link_2743 changed by rule link_2743_prv_setting_t_61.25
    61:15:00: PRV link_2729 changed by rule link_2729_prv_setting_t_61.25
    61:15:00: PRV link_2756 changed by rule link_2756_prv_setting_t_61.25
    61:15:00: Balanced after 2 trials
   
    61:30:00: PRV link_2743 changed by rule link_2743_prv_setting_t_61.5
    61:30:00: PRV link_2729 changed by rule link_2729_prv_setting_t_61.5
    61:30:00: PRV link_2756 changed by rule link_2756_prv_setting_t_61.5
    61:30:00: Balanced after 2 trials
   
    61:45:00: PRV link_2743 changed by rule link_2743_prv_setting_t_61.75
    61:45:00: PRV link_2729 changed by rule link_2729_prv_setting_t_61.75
    61:45:00: PRV link_2756 changed by rule link_2756_prv_setting_t_61.75
    61:45:00: Balanced after 2 trials
   
    62:00:00: PRV link_2743 changed by rule link_2743_prv_setting_t_62.0
    62:00:00: PRV link_2729 changed by rule link_2729_prv_setting_t_62.0
    62:00:00: PRV link_2756 changed by rule link_2756_prv_setting_t_62.0
    62:00:00: Balanced after 2 trials
   
    62:15:00: PRV link_2743 changed by rule link_2743_prv_setting_t_62.25
    62:15:00: PRV link_2729 changed by rule link_2729_prv_setting_t_62.25
    62:15:00: PRV link_2756 changed by rule link_2756_prv_setting_t_62.25
    62:15:00: Balanced after 3 trials
   
    62:30:00: PRV link_2743 changed by rule link_2743_prv_setting_t_62.5
    62:30:00: PRV link_2729 changed by rule link_2729_prv_setting_t_62.5
    62:30:00: PRV link_2756 changed by rule link_2756_prv_setting_t_62.5
    62:30:00: Balanced after 3 trials
   
    62:45:00: PRV link_2743 changed by rule link_2743_prv_setting_t_62.75
    62:45:00: PRV link_2729 changed by rule link_2729_prv_setting_t_62.75
    62:45:00: PRV link_2756 changed by rule link_2756_prv_setting_t_62.75
    62:45:00: Balanced after 3 trials
   
    63:00:00: PRV link_2743 changed by rule link_2743_prv_setting_t_63.0
    63:00:00: PRV link_2729 changed by rule link_2729_prv_setting_t_63.0
    63:00:00: PRV link_2756 changed by rule link_2756_prv_setting_t_63.0
    63:00:00: Balanced after 2 trials
   
    63:15:00: PRV link_2743 changed by rule link_2743_prv_setting_t_63.25
    63:15:00: PRV link_2729 changed by rule link_2729_prv_setting_t_63.25
    63:15:00: PRV link_2756 changed by rule link_2756_prv_setting_t_63.25
    63:15:00: Balanced after 2 trials
   
    63:30:00: PRV link_2743 changed by rule link_2743_prv_setting_t_63.5
    63:30:00: PRV link_2729 changed by rule link_2729_prv_setting_t_63.5
    63:30:00: PRV link_2756 changed by rule link_2756_prv_setting_t_63.5
    63:30:00: Balanced after 3 trials
   
    63:45:00: PRV link_2743 changed by rule link_2743_prv_setting_t_63.75
    63:45:00: PRV link_2729 changed by rule link_2729_prv_setting_t_63.75
    63:45:00: PRV link_2756 changed by rule link_2756_prv_setting_t_63.75
    63:45:00: Balanced after 2 trials
   
    64:00:00: PRV link_2743 changed by rule link_2743_prv_setting_t_64.0
    64:00:00: PRV link_2729 changed by rule link_2729_prv_setting_t_64.0
    64:00:00: PRV link_2756 changed by rule link_2756_prv_setting_t_64.0
    64:00:00: Balanced after 1 trials
   
    64:15:00: PRV link_2743 changed by rule link_2743_prv_setting_t_64.25
    64:15:00: PRV link_2729 changed by rule link_2729_prv_setting_t_64.25
    64:15:00: PRV link_2756 changed by rule link_2756_prv_setting_t_64.25
    64:15:00: Balanced after 3 trials
   
    64:30:00: PRV link_2743 changed by rule link_2743_prv_setting_t_64.5
    64:30:00: PRV link_2729 changed by rule link_2729_prv_setting_t_64.5
    64:30:00: PRV link_2756 changed by rule link_2756_prv_setting_t_64.5
    64:30:00: Balanced after 2 trials
   
    64:45:00: PRV link_2743 changed by rule link_2743_prv_setting_t_64.75
    64:45:00: PRV link_2729 changed by rule link_2729_prv_setting_t_64.75
    64:45:00: PRV link_2756 changed by rule link_2756_prv_setting_t_64.75
    64:45:00: Balanced after 2 trials
   
    65:00:00: PRV link_2743 changed by rule link_2743_prv_setting_t_65.0
    65:00:00: PRV link_2729 changed by rule link_2729_prv_setting_t_65.0
    65:00:00: PRV link_2756 changed by rule link_2756_prv_setting_t_65.0
    65:00:00: Balanced after 2 trials
   
    65:15:00: PRV link_2743 changed by rule link_2743_prv_setting_t_65.25
    65:15:00: PRV link_2729 changed by rule link_2729_prv_setting_t_65.25
    65:15:00: PRV link_2756 changed by rule link_2756_prv_setting_t_65.25
    65:15:00: Balanced after 3 trials
   
    65:30:00: PRV link_2743 changed by rule link_2743_prv_setting_t_65.5
    65:30:00: PRV link_2729 changed by rule link_2729_prv_setting_t_65.5
    65:30:00: PRV link_2756 changed by rule link_2756_prv_setting_t_65.5
    65:30:00: Balanced after 3 trials
   
    65:45:00: PRV link_2743 changed by rule link_2743_prv_setting_t_65.75
    65:45:00: PRV link_2729 changed by rule link_2729_prv_setting_t_65.75
    65:45:00: PRV link_2756 changed by rule link_2756_prv_setting_t_65.75
    65:45:00: Balanced after 3 trials
   
    66:00:00: PRV link_2743 changed by rule link_2743_prv_setting_t_66.0
    66:00:00: PRV link_2729 changed by rule link_2729_prv_setting_t_66.0
    66:00:00: PRV link_2756 changed by rule link_2756_prv_setting_t_66.0
    66:00:00: Balanced after 3 trials
   
    66:15:00: PRV link_2743 changed by rule link_2743_prv_setting_t_66.25
    66:15:00: PRV link_2729 changed by rule link_2729_prv_setting_t_66.25
    66:15:00: PRV link_2756 changed by rule link_2756_prv_setting_t_66.25
    66:15:00: Balanced after 3 trials
   
    66:30:00: PRV link_2743 changed by rule link_2743_prv_setting_t_66.5
    66:30:00: PRV link_2729 changed by rule link_2729_prv_setting_t_66.5
    66:30:00: PRV link_2756 changed by rule link_2756_prv_setting_t_66.5
    66:30:00: Balanced after 4 trials
   
    66:45:00: PRV link_2743 changed by rule link_2743_prv_setting_t_66.75
    66:45:00: PRV link_2729 changed by rule link_2729_prv_setting_t_66.75
    66:45:00: PRV link_2756 changed by rule link_2756_prv_setting_t_66.75
    66:45:00: Balanced after 3 trials
   
    67:00:00: PRV link_2743 changed by rule link_2743_prv_setting_t_67.0
    67:00:00: PRV link_2729 changed by rule link_2729_prv_setting_t_67.0
    67:00:00: PRV link_2756 changed by rule link_2756_prv_setting_t_67.0
    67:00:00: Balanced after 4 trials
   
    67:15:00: PRV link_2743 changed by rule link_2743_prv_setting_t_67.25
    67:15:00: PRV link_2729 changed by rule link_2729_prv_setting_t_67.25
    67:15:00: PRV link_2756 changed by rule link_2756_prv_setting_t_67.25
    67:15:00: Balanced after 3 trials
   
    67:30:00: PRV link_2743 changed by rule link_2743_prv_setting_t_67.5
    67:30:00: PRV link_2729 changed by rule link_2729_prv_setting_t_67.5
    67:30:00: PRV link_2756 changed by rule link_2756_prv_setting_t_67.5
    67:30:00: Balanced after 3 trials
   
    67:45:00: PRV link_2743 changed by rule link_2743_prv_setting_t_67.75
    67:45:00: PRV link_2729 changed by rule link_2729_prv_setting_t_67.75
    67:45:00: PRV link_2756 changed by rule link_2756_prv_setting_t_67.75
    67:45:00: Balanced after 3 trials
   
    68:00:00: PRV link_2743 changed by rule link_2743_prv_setting_t_68.0
    68:00:00: PRV link_2729 changed by rule link_2729_prv_setting_t_68.0
    68:00:00: PRV link_2756 changed by rule link_2756_prv_setting_t_68.0
    68:00:00: Balanced after 3 trials
   
    68:15:00: PRV link_2743 changed by rule link_2743_prv_setting_t_68.25
    68:15:00: PRV link_2729 changed by rule link_2729_prv_setting_t_68.25
    68:15:00: PRV link_2756 changed by rule link_2756_prv_setting_t_68.25
    68:15:00: Balanced after 2 trials
   
    68:30:00: PRV link_2743 changed by rule link_2743_prv_setting_t_68.5
    68:30:00: PRV link_2729 changed by rule link_2729_prv_setting_t_68.5
    68:30:00: PRV link_2756 changed by rule link_2756_prv_setting_t_68.5
    68:30:00: Balanced after 2 trials
   
    68:45:00: PRV link_2743 changed by rule link_2743_prv_setting_t_68.75
    68:45:00: PRV link_2729 changed by rule link_2729_prv_setting_t_68.75
    68:45:00: PRV link_2756 changed by rule link_2756_prv_setting_t_68.75
    68:45:00: Balanced after 3 trials
   
    69:00:00: PRV link_2743 changed by rule link_2743_prv_setting_t_69.0
    69:00:00: PRV link_2729 changed by rule link_2729_prv_setting_t_69.0
    69:00:00: PRV link_2756 changed by rule link_2756_prv_setting_t_69.0
    69:00:00: Balanced after 3 trials
   
    69:15:00: PRV link_2743 changed by rule link_2743_prv_setting_t_69.25
    69:15:00: PRV link_2729 changed by rule link_2729_prv_setting_t_69.25
    69:15:00: PRV link_2756 changed by rule link_2756_prv_setting_t_69.25
    69:15:00: Balanced after 3 trials
   
    69:30:00: PRV link_2743 changed by rule link_2743_prv_setting_t_69.5
    69:30:00: PRV link_2729 changed by rule link_2729_prv_setting_t_69.5
    69:30:00: PRV link_2756 changed by rule link_2756_prv_setting_t_69.5
    69:30:00: Balanced after 3 trials
   
    69:45:00: PRV link_2743 changed by rule link_2743_prv_setting_t_69.75
    69:45:00: PRV link_2729 changed by rule link_2729_prv_setting_t_69.75
    69:45:00: PRV link_2756 changed by rule link_2756_prv_setting_t_69.75
    69:45:00: Balanced after 3 trials
   
    70:00:00: PRV link_2743 changed by rule link_2743_prv_setting_t_70.0
    70:00:00: PRV link_2729 changed by rule link_2729_prv_setting_t_70.0
    70:00:00: PRV link_2756 changed by rule link_2756_prv_setting_t_70.0
    70:00:00: TCV link_2748 changed by rule link_2748_control_setting_t_70.
    70:00:00: TCV link_2747 changed by rule link_2747_control_setting_t_70.
    70:00:00: Balanced after 3 trials
   
    70:15:00: PRV link_2743 changed by rule link_2743_prv_setting_t_70.25
    70:15:00: PRV link_2729 changed by rule link_2729_prv_setting_t_70.25
    70:15:00: PRV link_2756 changed by rule link_2756_prv_setting_t_70.25
    70:15:00: Balanced after 3 trials
   
    70:30:00: PRV link_2743 changed by rule link_2743_prv_setting_t_70.5
    70:30:00: PRV link_2729 changed by rule link_2729_prv_setting_t_70.5
    70:30:00: PRV link_2756 changed by rule link_2756_prv_setting_t_70.5
    70:30:00: Balanced after 3 trials
   
    70:45:00: PRV link_2743 changed by rule link_2743_prv_setting_t_70.75
    70:45:00: PRV link_2729 changed by rule link_2729_prv_setting_t_70.75
    70:45:00: PRV link_2756 changed by rule link_2756_prv_setting_t_70.75
    70:45:00: Balanced after 3 trials
   
    71:00:00: PRV link_2743 changed by rule link_2743_prv_setting_t_71.0
    71:00:00: PRV link_2729 changed by rule link_2729_prv_setting_t_71.0
    71:00:00: PRV link_2756 changed by rule link_2756_prv_setting_t_71.0
    71:00:00: TCV link_2748 changed by rule link_2748_control_setting_t_71.
    71:00:00: TCV link_2747 changed by rule link_2747_control_setting_t_71.
    71:00:00: Balanced after 6 trials
   
    71:15:00: PRV link_2729 changed by rule link_2729_prv_setting_t_71.25
    71:15:00: PRV link_2756 changed by rule link_2756_prv_setting_t_71.25
    71:15:00: Balanced after 3 trials
   
    71:30:00: PRV link_2743 changed by rule link_2743_prv_setting_t_71.5
    71:30:00: PRV link_2729 changed by rule link_2729_prv_setting_t_71.5
    71:30:00: PRV link_2756 changed by rule link_2756_prv_setting_t_71.5
    71:30:00: Balanced after 3 trials
   
    71:45:00: PRV link_2743 changed by rule link_2743_prv_setting_t_71.75
    71:45:00: PRV link_2729 changed by rule link_2729_prv_setting_t_71.75
    71:45:00: PRV link_2756 changed by rule link_2756_prv_setting_t_71.75
    71:45:00: Balanced after 3 trials
   
    72:00:00: PRV link_2743 changed by rule link_2743_prv_setting_t_72.0
    72:00:00: PRV link_2729 changed by rule link_2729_prv_setting_t_72.0
    72:00:00: PRV link_2756 changed by rule link_2756_prv_setting_t_72.0
    72:00:00: Balanced after 3 trials
   
    72:15:00: PRV link_2743 changed by rule link_2743_prv_setting_t_72.25
    72:15:00: PRV link_2729 changed by rule link_2729_prv_setting_t_72.25
    72:15:00: PRV link_2756 changed by rule link_2756_prv_setting_t_72.25
    72:15:00: Balanced after 3 trials
   
    72:30:00: PRV link_2743 changed by rule link_2743_prv_setting_t_72.5
    72:30:00: PRV link_2729 changed by rule link_2729_prv_setting_t_72.5
    72:30:00: PRV link_2756 changed by rule link_2756_prv_setting_t_72.5
    72:30:00: Balanced after 3 trials
   
    72:45:00: PRV link_2743 changed by rule link_2743_prv_setting_t_72.75
    72:45:00: PRV link_2729 changed by rule link_2729_prv_setting_t_72.75
    72:45:00: PRV link_2756 changed by rule link_2756_prv_setting_t_72.75
    72:45:00: Balanced after 3 trials
   
    73:00:00: PRV link_2743 changed by rule link_2743_prv_setting_t_73.0
    73:00:00: PRV link_2729 changed by rule link_2729_prv_setting_t_73.0
    73:00:00: PRV link_2756 changed by rule link_2756_prv_setting_t_73.0
    73:00:00: Balanced after 3 trials
   
    73:15:00: PRV link_2743 changed by rule link_2743_prv_setting_t_73.25
    73:15:00: PRV link_2729 changed by rule link_2729_prv_setting_t_73.25
    73:15:00: PRV link_2756 changed by rule link_2756_prv_setting_t_73.25
    73:15:00: Balanced after 3 trials
   
    73:30:00: PRV link_2743 changed by rule link_2743_prv_setting_t_73.5
    73:30:00: PRV link_2729 changed by rule link_2729_prv_setting_t_73.5
    73:30:00: PRV link_2756 changed by rule link_2756_prv_setting_t_73.5
[...]
   149:45:00: PRV link_2756 changed by rule link_2756_prv_setting_t_149.75
   149:45:00: Balanced after 3 trials
   
   150:00:00: PRV link_2743 changed by rule link_2743_prv_setting_t_150.0
   150:00:00: PRV link_2729 changed by rule link_2729_prv_setting_t_150.0
   150:00:00: PRV link_2756 changed by rule link_2756_prv_setting_t_150.0
   150:00:00: TCV link_2748 changed by rule link_2748_control_setting_t_150
   150:00:00: TCV link_2747 changed by rule link_2747_control_setting_t_150
   150:00:00: Balanced after 3 trials
   
   150:15:00: PRV link_2743 changed by rule link_2743_prv_setting_t_150.25
   150:15:00: PRV link_2729 changed by rule link_2729_prv_setting_t_150.25
   150:15:00: PRV link_2756 changed by rule link_2756_prv_setting_t_150.25
   150:15:00: Balanced after 3 trials
   
   150:30:00: PRV link_2743 changed by rule link_2743_prv_setting_t_150.5
   150:30:00: PRV link_2729 changed by rule link_2729_prv_setting_t_150.5
   150:30:00: PRV link_2756 changed by rule link_2756_prv_setting_t_150.5
   150:30:00: Balanced after 3 trials
   
   150:45:00: PRV link_2743 changed by rule link_2743_prv_setting_t_150.75
   150:45:00: PRV link_2729 changed by rule link_2729_prv_setting_t_150.75
   150:45:00: PRV link_2756 changed by rule link_2756_prv_setting_t_150.75
   150:45:00: Balanced after 3 trials
   
   151:00:00: PRV link_2743 changed by rule link_2743_prv_setting_t_151.0
   151:00:00: PRV link_2729 changed by rule link_2729_prv_setting_t_151.0
   151:00:00: PRV link_2756 changed by rule link_2756_prv_setting_t_151.0
   151:00:00: Balanced after 3 trials
   
   151:15:00: PRV link_2743 changed by rule link_2743_prv_setting_t_151.25
   151:15:00: PRV link_2729 changed by rule link_2729_prv_setting_t_151.25
   151:15:00: PRV link_2756 changed by rule link_2756_prv_setting_t_151.25
   151:15:00: Balanced after 3 trials
   
   151:30:00: PRV link_2743 changed by rule link_2743_prv_setting_t_151.5
   151:30:00: PRV link_2729 changed by rule link_2729_prv_setting_t_151.5
   151:30:00: PRV link_2756 changed by rule link_2756_prv_setting_t_151.5
   151:30:00: Balanced after 4 trials
   
   151:45:00: PRV link_2743 changed by rule link_2743_prv_setting_t_151.75
   151:45:00: PRV link_2729 changed by rule link_2729_prv_setting_t_151.75
   151:45:00: PRV link_2756 changed by rule link_2756_prv_setting_t_151.75
   151:45:00: Balanced after 3 trials
   
   152:00:00: PRV link_2743 changed by rule link_2743_prv_setting_t_152.0
   152:00:00: PRV link_2729 changed by rule link_2729_prv_setting_t_152.0
   152:00:00: PRV link_2756 changed by rule link_2756_prv_setting_t_152.0
   152:00:00: Balanced after 3 trials
   
   152:15:00: PRV link_2743 changed by rule link_2743_prv_setting_t_152.25
   152:15:00: PRV link_2729 changed by rule link_2729_prv_setting_t_152.25
   152:15:00: PRV link_2756 changed by rule link_2756_prv_setting_t_152.25
   152:15:00: Balanced after 4 trials
   
   152:30:00: PRV link_2743 changed by rule link_2743_prv_setting_t_152.5
   152:30:00: PRV link_2729 changed by rule link_2729_prv_setting_t_152.5
   152:30:00: PRV link_2756 changed by rule link_2756_prv_setting_t_152.5
   152:30:00: Balanced after 3 trials
   
   152:45:00: PRV link_2743 changed by rule link_2743_prv_setting_t_152.75
   152:45:00: PRV link_2729 changed by rule link_2729_prv_setting_t_152.75
   152:45:00: PRV link_2756 changed by rule link_2756_prv_setting_t_152.75
   152:45:00: Balanced after 3 trials
   
   153:00:00: PRV link_2743 changed by rule link_2743_prv_setting_t_153.0
   153:00:00: PRV link_2729 changed by rule link_2729_prv_setting_t_153.0
   153:00:00: PRV link_2756 changed by rule link_2756_prv_setting_t_153.0
   153:00:00: Balanced after 3 trials
   
   153:15:00: PRV link_2743 changed by rule link_2743_prv_setting_t_153.25
   153:15:00: PRV link_2729 changed by rule link_2729_prv_setting_t_153.25
   153:15:00: PRV link_2756 changed by rule link_2756_prv_setting_t_153.25
   153:15:00: Balanced after 3 trials
   
   153:30:00: PRV link_2743 changed by rule link_2743_prv_setting_t_153.5
   153:30:00: PRV link_2729 changed by rule link_2729_prv_setting_t_153.5
   153:30:00: PRV link_2756 changed by rule link_2756_prv_setting_t_153.5
   153:30:00: Balanced after 3 trials
   
   153:45:00: PRV link_2743 changed by rule link_2743_prv_setting_t_153.75
   153:45:00: PRV link_2729 changed by rule link_2729_prv_setting_t_153.75
   153:45:00: PRV link_2756 changed by rule link_2756_prv_setting_t_153.75
   153:45:00: Balanced after 2 trials
   
   154:00:00: PRV link_2743 changed by rule link_2743_prv_setting_t_154.0
   154:00:00: PRV link_2729 changed by rule link_2729_prv_setting_t_154.0
   154:00:00: PRV link_2756 changed by rule link_2756_prv_setting_t_154.0
   154:00:00: Balanced after 2 trials
   
   154:15:00: PRV link_2743 changed by rule link_2743_prv_setting_t_154.25
   154:15:00: PRV link_2729 changed by rule link_2729_prv_setting_t_154.25
   154:15:00: PRV link_2756 changed by rule link_2756_prv_setting_t_154.25
   154:15:00: Balanced after 3 trials
   
   154:30:00: PRV link_2743 changed by rule link_2743_prv_setting_t_154.5
   154:30:00: PRV link_2729 changed by rule link_2729_prv_setting_t_154.5
   154:30:00: PRV link_2756 changed by rule link_2756_prv_setting_t_154.5
   154:30:00: Balanced after 2 trials
   
   154:45:00: PRV link_2743 changed by rule link_2743_prv_setting_t_154.75
   154:45:00: PRV link_2729 changed by rule link_2729_prv_setting_t_154.75
   154:45:00: PRV link_2756 changed by rule link_2756_prv_setting_t_154.75
   154:45:00: Balanced after 1 trials
   
   155:00:00: PRV link_2743 changed by rule link_2743_prv_setting_t_155.0
   155:00:00: PRV link_2729 changed by rule link_2729_prv_setting_t_155.0
   155:00:00: PRV link_2756 changed by rule link_2756_prv_setting_t_155.0
   155:00:00: Balanced after 3 trials
   
   155:15:00: PRV link_2743 changed by rule link_2743_prv_setting_t_155.25
   155:15:00: PRV link_2729 changed by rule link_2729_prv_setting_t_155.25
   155:15:00: PRV link_2756 changed by rule link_2756_prv_setting_t_155.25
   155:15:00: Balanced after 3 trials
   
   155:30:00: PRV link_2743 changed by rule link_2743_prv_setting_t_155.5
   155:30:00: PRV link_2729 changed by rule link_2729_prv_setting_t_155.5
   155:30:00: PRV link_2756 changed by rule link_2756_prv_setting_t_155.5
   155:30:00: Balanced after 2 trials
   
   155:45:00: PRV link_2743 changed by rule link_2743_prv_setting_t_155.75
   155:45:00: PRV link_2729 changed by rule link_2729_prv_setting_t_155.75
   155:45:00: PRV link_2756 changed by rule link_2756_prv_setting_t_155.75
   155:45:00: Balanced after 1 trials
   
   156:00:00: PRV link_2743 changed by rule link_2743_prv_setting_t_156.0
   156:00:00: PRV link_2729 changed by rule link_2729_prv_setting_t_156.0
   156:00:00: PRV link_2756 changed by rule link_2756_prv_setting_t_156.0
   156:00:00: Balanced after 2 trials
   
   156:15:00: PRV link_2743 changed by rule link_2743_prv_setting_t_156.25
   156:15:00: PRV link_2729 changed by rule link_2729_prv_setting_t_156.25
   156:15:00: PRV link_2756 changed by rule link_2756_prv_setting_t_156.25
   156:15:00: Balanced after 3 trials
   
   156:30:00: PRV link_2743 changed by rule link_2743_prv_setting_t_156.5
   156:30:00: PRV link_2729 changed by rule link_2729_prv_setting_t_156.5
   156:30:00: PRV link_2756 changed by rule link_2756_prv_setting_t_156.5
   156:30:00: Balanced after 2 trials
   
   156:45:00: PRV link_2743 changed by rule link_2743_prv_setting_t_156.75
   156:45:00: PRV link_2729 changed by rule link_2729_prv_setting_t_156.75
   156:45:00: PRV link_2756 changed by rule link_2756_prv_setting_t_156.75
   156:45:00: Balanced after 1 trials
   
   157:00:00: PRV link_2743 changed by rule link_2743_prv_setting_t_157.0
   157:00:00: PRV link_2729 changed by rule link_2729_prv_setting_t_157.0
   157:00:00: PRV link_2756 changed by rule link_2756_prv_setting_t_157.0
   157:00:00: Balanced after 2 trials
   
   157:15:00: PRV link_2743 changed by rule link_2743_prv_setting_t_157.25
   157:15:00: PRV link_2729 changed by rule link_2729_prv_setting_t_157.25
   157:15:00: PRV link_2756 changed by rule link_2756_prv_setting_t_157.25
   157:15:00: Balanced after 2 trials
   
   157:30:00: PRV link_2743 changed by rule link_2743_prv_setting_t_157.5
   157:30:00: PRV link_2729 changed by rule link_2729_prv_setting_t_157.5
   157:30:00: PRV link_2756 changed by rule link_2756_prv_setting_t_157.5
   157:30:00: Balanced after 2 trials
   
   157:45:00: PRV link_2743 changed by rule link_2743_prv_setting_t_157.75
   157:45:00: PRV link_2729 changed by rule link_2729_prv_setting_t_157.75
   157:45:00: PRV link_2756 changed by rule link_2756_prv_setting_t_157.75
   157:45:00: Balanced after 2 trials
   
   158:00:00: PRV link_2743 changed by rule link_2743_prv_setting_t_158.0
   158:00:00: PRV link_2729 changed by rule link_2729_prv_setting_t_158.0
   158:00:00: PRV link_2756 changed by rule link_2756_prv_setting_t_158.0
   158:00:00: Balanced after 2 trials
   
   158:15:00: PRV link_2743 changed by rule link_2743_prv_setting_t_158.25
   158:15:00: PRV link_2729 changed by rule link_2729_prv_setting_t_158.25
   158:15:00: PRV link_2756 changed by rule link_2756_prv_setting_t_158.25
   158:15:00: Balanced after 3 trials
   
   158:30:00: PRV link_2743 changed by rule link_2743_prv_setting_t_158.5
   158:30:00: PRV link_2729 changed by rule link_2729_prv_setting_t_158.5
   158:30:00: PRV link_2756 changed by rule link_2756_prv_setting_t_158.5
   158:30:00: Balanced after 3 trials
   
   158:45:00: PRV link_2743 changed by rule link_2743_prv_setting_t_158.75
   158:45:00: PRV link_2729 changed by rule link_2729_prv_setting_t_158.75
   158:45:00: PRV link_2756 changed by rule link_2756_prv_setting_t_158.75
   158:45:00: Balanced after 3 trials
   
   159:00:00: PRV link_2743 changed by rule link_2743_prv_setting_t_159.0
   159:00:00: PRV link_2729 changed by rule link_2729_prv_setting_t_159.0
   159:00:00: PRV link_2756 changed by rule link_2756_prv_setting_t_159.0
   159:00:00: Balanced after 2 trials
   
   159:15:00: PRV link_2743 changed by rule link_2743_prv_setting_t_159.25
   159:15:00: PRV link_2729 changed by rule link_2729_prv_setting_t_159.25
   159:15:00: PRV link_2756 changed by rule link_2756_prv_setting_t_159.25
   159:15:00: Balanced after 2 trials
   
   159:30:00: PRV link_2743 changed by rule link_2743_prv_setting_t_159.5
   159:30:00: PRV link_2729 changed by rule link_2729_prv_setting_t_159.5
   159:30:00: PRV link_2756 changed by rule link_2756_prv_setting_t_159.5
   159:30:00: Balanced after 3 trials
   
   159:45:00: PRV link_2743 changed by rule link_2743_prv_setting_t_159.75
   159:45:00: PRV link_2729 changed by rule link_2729_prv_setting_t_159.75
   159:45:00: PRV link_2756 changed by rule link_2756_prv_setting_t_159.75
   159:45:00: Balanced after 2 trials
   
   160:00:00: PRV link_2743 changed by rule link_2743_prv_setting_t_160.0
   160:00:00: PRV link_2729 changed by rule link_2729_prv_setting_t_160.0
   160:00:00: PRV link_2756 changed by rule link_2756_prv_setting_t_160.0
   160:00:00: Balanced after 1 trials
   
   160:15:00: PRV link_2743 changed by rule link_2743_prv_setting_t_160.25
   160:15:00: PRV link_2729 changed by rule link_2729_prv_setting_t_160.25
   160:15:00: PRV link_2756 changed by rule link_2756_prv_setting_t_160.25
   160:15:00: Balanced after 3 trials
   
   160:30:00: PRV link_2743 changed by rule link_2743_prv_setting_t_160.5
   160:30:00: PRV link_2729 changed by rule link_2729_prv_setting_t_160.5
   160:30:00: PRV link_2756 changed by rule link_2756_prv_setting_t_160.5
   160:30:00: Balanced after 2 trials
   
   160:45:00: PRV link_2743 changed by rule link_2743_prv_setting_t_160.75
   160:45:00: PRV link_2729 changed by rule link_2729_prv_setting_t_160.75
   160:45:00: PRV link_2756 changed by rule link_2756_prv_setting_t_160.75
   160:45:00: Balanced after 2 trials
   
   161:00:00: PRV link_2743 changed by rule link_2743_prv_setting_t_161.0
   161:00:00: PRV link_2729 changed by rule link_2729_prv_setting_t_161.0
   161:00:00: PRV link_2756 changed by rule link_2756_prv_setting_t_161.0
   161:00:00: Balanced after 2 trials
   
   161:15:00: PRV link_2743 changed by rule link_2743_prv_setting_t_161.25
   161:15:00: PRV link_2729 changed by rule link_2729_prv_setting_t_161.25
   161:15:00: PRV link_2756 changed by rule link_2756_prv_setting_t_161.25
   161:15:00: Balanced after 3 trials
   
   161:30:00: PRV link_2743 changed by rule link_2743_prv_setting_t_161.5
   161:30:00: PRV link_2729 changed by rule link_2729_prv_setting_t_161.5
   161:30:00: PRV link_2756 changed by rule link_2756_prv_setting_t_161.5
   161:30:00: Balanced after 3 trials
   
   161:45:00: PRV link_2743 changed by rule link_2743_prv_setting_t_161.75
   161:45:00: PRV link_2729 changed by rule link_2729_prv_setting_t_161.75
   161:45:00: PRV link_2756 changed by rule link_2756_prv_setting_t_161.75
   161:45:00: Balanced after 3 trials
   
   162:00:00: PRV link_2743 changed by rule link_2743_prv_setting_t_162.0
   162:00:00: PRV link_2729 changed by rule link_2729_prv_setting_t_162.0
   162:00:00: PRV link_2756 changed by rule link_2756_prv_setting_t_162.0
   162:00:00: Balanced after 3 trials
   
   162:15:00: PRV link_2743 changed by rule link_2743_prv_setting_t_162.25
   162:15:00: PRV link_2729 changed by rule link_2729_prv_setting_t_162.25
   162:15:00: PRV link_2756 changed by rule link_2756_prv_setting_t_162.25
   162:15:00: Balanced after 3 trials
   
   162:30:00: PRV link_2743 changed by rule link_2743_prv_setting_t_162.5
   162:30:00: PRV link_2729 changed by rule link_2729_prv_setting_t_162.5
   162:30:00: PRV link_2756 changed by rule link_2756_prv_setting_t_162.5
   162:30:00: Balanced after 4 trials
   
   162:45:00: PRV link_2743 changed by rule link_2743_prv_setting_t_162.75
   162:45:00: PRV link_2729 changed by rule link_2729_prv_setting_t_162.75
   162:45:00: PRV link_2756 changed by rule link_2756_prv_setting_t_162.75
   162:45:00: Balanced after 3 trials
   
   163:00:00: PRV link_2743 changed by rule link_2743_prv_setting_t_163.0
   163:00:00: PRV link_2729 changed by rule link_2729_prv_setting_t_163.0
   163:00:00: PRV link_2756 changed by rule link_2756_prv_setting_t_163.0
   163:00:00: Balanced after 4 trials
   
   163:15:00: PRV link_2743 changed by rule link_2743_prv_setting_t_163.25
   163:15:00: PRV link_2729 changed by rule link_2729_prv_setting_t_163.25
   163:15:00: PRV link_2756 changed by rule link_2756_prv_setting_t_163.25
   163:15:00: Balanced after 3 trials
   
   163:30:00: PRV link_2743 changed by rule link_2743_prv_setting_t_163.5
   163:30:00: PRV link_2729 changed by rule link_2729_prv_setting_t_163.5
   163:30:00: PRV link_2756 changed by rule link_2756_prv_setting_t_163.5
   163:30:00: Balanced after 3 trials
   
   163:45:00: PRV link_2743 changed by rule link_2743_prv_setting_t_163.75
   163:45:00: PRV link_2729 changed by rule link_2729_prv_setting_t_163.75
   163:45:00: PRV link_2756 changed by rule link_2756_prv_setting_t_163.75
   163:45:00: Balanced after 3 trials
   
   164:00:00: PRV link_2743 changed by rule link_2743_prv_setting_t_164.0
   164:00:00: PRV link_2729 changed by rule link_2729_prv_setting_t_164.0
   164:00:00: PRV link_2756 changed by rule link_2756_prv_setting_t_164.0
   164:00:00: Balanced after 3 trials
   
   164:15:00: PRV link_2743 changed by rule link_2743_prv_setting_t_164.25
   164:15:00: PRV link_2729 changed by rule link_2729_prv_setting_t_164.25
   164:15:00: PRV link_2756 changed by rule link_2756_prv_setting_t_164.25
   164:15:00: Balanced after 2 trials
   
   164:30:00: PRV link_2743 changed by rule link_2743_prv_setting_t_164.5
   164:30:00: PRV link_2729 changed by rule link_2729_prv_setting_t_164.5
   164:30:00: PRV link_2756 changed by rule link_2756_prv_setting_t_164.5
   164:30:00: Balanced after 2 trials
   
   164:45:00: PRV link_2743 changed by rule link_2743_prv_setting_t_164.75
   164:45:00: PRV link_2729 changed by rule link_2729_prv_setting_t_164.75
   164:45:00: PRV link_2756 changed by rule link_2756_prv_setting_t_164.75
   164:45:00: Balanced after 3 trials
   
   165:00:00: PRV link_2743 changed by rule link_2743_prv_setting_t_165.0
   165:00:00: PRV link_2729 changed by rule link_2729_prv_setting_t_165.0
   165:00:00: PRV link_2756 changed by rule link_2756_prv_setting_t_165.0
   165:00:00: Balanced after 3 trials
   
   165:15:00: PRV link_2743 changed by rule link_2743_prv_setting_t_165.25
   165:15:00: PRV link_2729 changed by rule link_2729_prv_setting_t_165.25
   165:15:00: PRV link_2756 changed by rule link_2756_prv_setting_t_165.25
   165:15:00: Balanced after 3 trials
   
   165:30:00: PRV link_2743 changed by rule link_2743_prv_setting_t_165.5
   165:30:00: PRV link_2729 changed by rule link_2729_prv_setting_t_165.5
   165:30:00: PRV link_2756 changed by rule link_2756_prv_setting_t_165.5
   165:30:00: Balanced after 3 trials
   
   165:45:00: PRV link_2743 changed by rule link_2743_prv_setting_t_165.75
   165:45:00: PRV link_2729 changed by rule link_2729_prv_setting_t_165.75
   165:45:00: PRV link_2756 changed by rule link_2756_prv_setting_t_165.75
   165:45:00: Balanced after 3 trials
   
   166:00:00: PRV link_2743 changed by rule link_2743_prv_setting_t_166.0
   166:00:00: PRV link_2729 changed by rule link_2729_prv_setting_t_166.0
   166:00:00: PRV link_2756 changed by rule link_2756_prv_setting_t_166.0
   166:00:00: TCV link_2748 changed by rule link_2748_control_setting_t_166
   166:00:00: TCV link_2747 changed by rule link_2747_control_setting_t_166
   166:00:00: Balanced after 3 trials
   
   166:15:00: PRV link_2743 changed by rule link_2743_prv_setting_t_166.25
   166:15:00: PRV link_2729 changed by rule link_2729_prv_setting_t_166.25
   166:15:00: PRV link_2756 changed by rule link_2756_prv_setting_t_166.25
   166:15:00: Balanced after 3 trials
   
   166:30:00: PRV link_2743 changed by rule link_2743_prv_setting_t_166.5
   166:30:00: PRV link_2729 changed by rule link_2729_prv_setting_t_166.5
   166:30:00: PRV link_2756 changed by rule link_2756_prv_setting_t_166.5
   166:30:00: Balanced after 3 trials
   
   166:45:00: PRV link_2743 changed by rule link_2743_prv_setting_t_166.75
   166:45:00: PRV link_2729 changed by rule link_2729_prv_setting_t_166.75
   166:45:00: PRV link_2756 changed by rule link_2756_prv_setting_t_166.75
   166:45:00: Balanced after 3 trials
   
   167:00:00: PRV link_2743 changed by rule link_2743_prv_setting_t_167.0
   167:00:00: PRV link_2729 changed by rule link_2729_prv_setting_t_167.0
   167:00:00: PRV link_2756 changed by rule link_2756_prv_setting_t_167.0
   167:00:00: TCV link_2748 changed by rule link_2748_control_setting_t_167
   167:00:00: TCV link_2747 changed by rule link_2747_control_setting_t_167
   167:00:00: Balanced after 6 trials
   
   167:15:00: PRV link_2729 changed by rule link_2729_prv_setting_t_167.25
   167:15:00: PRV link_2756 changed by rule link_2756_prv_setting_t_167.25
   167:15:00: Balanced after 3 trials
   
   167:30:00: PRV link_2743 changed by rule link_2743_prv_setting_t_167.5
   167:30:00: PRV link_2729 changed by rule link_2729_prv_setting_t_167.5
   167:30:00: PRV link_2756 changed by rule link_2756_prv_setting_t_167.5
   167:30:00: Balanced after 3 trials
   
   167:45:00: PRV link_2743 changed by rule link_2743_prv_setting_t_167.75
   167:45:00: PRV link_2729 changed by rule link_2729_prv_setting_t_167.75
   167:45:00: PRV link_2756 changed by rule link_2756_prv_setting_t_167.75
   167:45:00: Balanced after 3 trials
   
  Water Quality Mass Balance (mg)
  ================================
  Initial Mass:       0.00000e+00
  Mass Inflow:        2.02520e+10
  Mass Outflow:       1.47514e+10
  Mass Reacted:       5.14629e+09
  Final Mass:         3.61224e+08
  Mass Ratio:         1.00034
  ================================

  Analysis ended Mon Nov 13 05:42:37 2023
