  Page 1                                    Sat Jan  6 10:06:32 2024

  ******************************************************************
  *                           E P A N E T                          *
  *                   Hydraulic and Water Quality                  *
  *                   Analysis for Pipe Networks                   *
  *                         Version 2.2                            *
  ******************************************************************
  
  Analysis begun Sat Jan  6 10:06:32 2024

   
  Hydraulic Status:
  -----------------------------------------------------------------------
     0:00:00: Balanced after 8 trials
     0:00:00: Reservoir node_2746 is emptying
     0:00:00: Reservoir node_2747 is emptying
   
     0:15:00: Balanced after 2 trials
   
     0:30:00: Balanced after 2 trials
   
     0:45:00: Balanced after 2 trials
   
     1:00:00: Balanced after 2 trials
   
     1:15:00: Balanced after 2 trials
   
     1:30:00: Balanced after 2 trials
   
     1:45:00: Balanced after 2 trials
   
     2:00:00: Balanced after 2 trials
   
     2:15:00: Balanced after 2 trials
   
     2:30:00: Balanced after 2 trials
   
     2:45:00: Balanced after 2 trials
   
     3:00:00: Balanced after 2 trials
   
     3:15:00: Balanced after 2 trials
   
     3:30:00: Balanced after 2 trials
   
     3:45:00: Balanced after 2 trials
   
     4:00:00: Balanced after 2 trials
   
     4:15:00: Balanced after 2 trials
   
     4:30:00: Balanced after 2 trials
   
     4:45:00: Balanced after 2 trials
   
     5:00:00: Balanced after 2 trials
   
     5:15:00: Balanced after 2 trials
   
     5:30:00: Balanced after 2 trials
   
     5:45:00: Balanced after 2 trials
   
     6:00:00: Balanced after 2 trials
   
     6:15:00: Balanced after 2 trials
   
     6:30:00: Balanced after 2 trials
   
     6:45:00: Balanced after 2 trials
   
     7:00:00: Balanced after 2 trials
   
     7:15:00: Balanced after 2 trials
   
     7:30:00: Balanced after 2 trials
   
     7:45:00: Balanced after 2 trials
   
     8:00:00: Balanced after 2 trials
   
     8:15:00: Balanced after 2 trials
   
     8:30:00: Balanced after 2 trials
   
     8:45:00: Balanced after 2 trials
   
     9:00:00: Balanced after 2 trials
   
     9:15:00: Balanced after 2 trials
   
     9:30:00: Balanced after 2 trials
   
     9:45:00: Balanced after 2 trials
   
    10:00:00: Balanced after 2 trials
   
    10:15:00: Balanced after 2 trials
   
    10:30:00: Balanced after 2 trials
   
    10:45:00: Balanced after 2 trials
   
    11:00:00: Balanced after 2 trials
   
    11:15:00: Balanced after 2 trials
   
    11:30:00: Balanced after 2 trials
   
    11:45:00: Balanced after 1 trials
   
    12:00:00: Balanced after 2 trials
   
    12:15:00: Balanced after 2 trials
   
    12:30:00: Balanced after 2 trials
   
    12:45:00: Balanced after 2 trials
   
    13:00:00: Balanced after 2 trials
   
    13:15:00: Balanced after 2 trials
   
    13:30:00: Balanced after 2 trials
   
    13:45:00: Balanced after 2 trials
   
    14:00:00: Balanced after 2 trials
   
    14:15:00: Balanced after 2 trials
   
    14:30:00: Balanced after 2 trials
   
    14:45:00: Balanced after 2 trials
   
    15:00:00: Balanced after 2 trials
   
    15:15:00: Balanced after 2 trials
   
    15:30:00: Balanced after 2 trials
   
    15:45:00: Balanced after 2 trials
   
    16:00:00: Balanced after 1 trials
   
    16:15:00: Balanced after 2 trials
   
    16:30:00: Balanced after 1 trials
   
    16:45:00: Balanced after 1 trials
   
    17:00:00: Balanced after 2 trials
   
    17:15:00: Balanced after 2 trials
   
    17:30:00: Balanced after 2 trials
   
    17:45:00: Balanced after 2 trials
   
    18:00:00: Balanced after 2 trials
   
    18:15:00: Balanced after 2 trials
   
    18:30:00: Balanced after 2 trials
   
    18:45:00: Balanced after 1 trials
   
    19:00:00: Balanced after 2 trials
   
    19:15:00: Balanced after 2 trials
   
    19:30:00: Balanced after 2 trials
   
    19:45:00: Balanced after 2 trials
   
    20:00:00: Balanced after 2 trials
   
    20:15:00: Balanced after 2 trials
   
    20:30:00: Balanced after 2 trials
   
    20:45:00: Balanced after 2 trials
   
    21:00:00: Balanced after 2 trials
   
    21:15:00: Balanced after 2 trials
   
    21:30:00: Balanced after 2 trials
   
    21:45:00: Balanced after 2 trials
   
    22:00:00: Balanced after 2 trials
   
    22:15:00: Balanced after 2 trials
   
    22:30:00: Balanced after 2 trials
   
    22:45:00: Balanced after 2 trials
   
    23:00:00: Balanced after 2 trials
   
    23:15:00: Balanced after 2 trials
   
    23:30:00: Balanced after 2 trials
   
    23:45:00: Balanced after 2 trials
   
    24:00:00: Balanced after 2 trials
   
    24:15:00: Balanced after 2 trials
   
    24:30:00: Balanced after 2 trials
   
    24:45:00: Balanced after 2 trials
   
    25:00:00: Balanced after 2 trials
   
    25:15:00: Balanced after 2 trials
   
    25:30:00: Balanced after 2 trials
   
    25:45:00: Balanced after 2 trials
   
    26:00:00: Balanced after 2 trials
   
    26:15:00: Balanced after 2 trials
   
    26:30:00: Balanced after 2 trials
   
    26:45:00: Balanced after 2 trials
   
    27:00:00: Balanced after 2 trials
   
    27:15:00: Balanced after 2 trials
   
    27:30:00: Balanced after 2 trials
   
    27:45:00: Balanced after 2 trials
   
    28:00:00: Balanced after 2 trials
   
    28:15:00: Balanced after 2 trials
   
    28:30:00: Balanced after 2 trials
   
    28:45:00: Balanced after 2 trials
   
    29:00:00: Balanced after 2 trials
   
    29:15:00: Balanced after 2 trials
   
    29:30:00: Balanced after 2 trials
   
    29:45:00: Balanced after 2 trials
   
    30:00:00: Balanced after 2 trials
   
    30:15:00: Balanced after 2 trials
   
    30:30:00: Balanced after 2 trials
   
    30:45:00: Balanced after 2 trials
   
    31:00:00: Balanced after 2 trials
   
    31:15:00: Balanced after 2 trials
   
    31:30:00: Balanced after 2 trials
   
    31:45:00: Balanced after 2 trials
   
    32:00:00: Balanced after 2 trials
   
    32:15:00: Balanced after 2 trials
   
    32:30:00: Balanced after 2 trials
   
    32:45:00: Balanced after 2 trials
   
    33:00:00: Balanced after 2 trials
   
    33:15:00: Balanced after 2 trials
   
    33:30:00: Balanced after 2 trials
   
    33:45:00: Balanced after 2 trials
   
    34:00:00: Balanced after 2 trials
   
    34:15:00: Balanced after 2 trials
   
    34:30:00: Balanced after 2 trials
   
    34:45:00: Balanced after 2 trials
   
    35:00:00: Balanced after 2 trials
   
    35:15:00: Balanced after 2 trials
   
    35:30:00: Balanced after 2 trials
   
    35:45:00: Balanced after 1 trials
   
    36:00:00: Balanced after 2 trials
   
    36:15:00: Balanced after 2 trials
   
    36:30:00: Balanced after 2 trials
   
    36:45:00: Balanced after 2 trials
   
    37:00:00: Balanced after 2 trials
   
    37:15:00: Balanced after 2 trials
   
    37:30:00: Balanced after 2 trials
   
    37:45:00: Balanced after 2 trials
   
    38:00:00: Balanced after 2 trials
   
    38:15:00: Balanced after 2 trials
   
    38:30:00: Balanced after 2 trials
   
    38:45:00: Balanced after 2 trials
   
    39:00:00: Balanced after 2 trials
   
    39:15:00: Balanced after 2 trials
   
    39:30:00: Balanced after 2 trials
   
    39:45:00: Balanced after 2 trials
   
    40:00:00: Balanced after 1 trials
   
    40:15:00: Balanced after 2 trials
   
    40:30:00: Balanced after 1 trials
   
    40:45:00: Balanced after 1 trials
   
    41:00:00: Balanced after 2 trials
   
    41:15:00: Balanced after 2 trials
   
    41:30:00: Balanced after 2 trials
   
    41:45:00: Balanced after 2 trials
   
    42:00:00: Balanced after 2 trials
   
    42:15:00: Balanced after 2 trials
   
    42:30:00: Balanced after 2 trials
   
    42:45:00: Balanced after 1 trials
   
    43:00:00: Balanced after 2 trials
   
    43:15:00: Balanced after 2 trials
   
    43:30:00: Balanced after 2 trials
   
    43:45:00: Balanced after 2 trials
   
    44:00:00: Balanced after 2 trials
   
    44:15:00: Balanced after 2 trials
   
    44:30:00: Balanced after 2 trials
   
    44:45:00: Balanced after 2 trials
   
    45:00:00: Balanced after 2 trials
   
    45:15:00: Balanced after 2 trials
   
    45:30:00: Balanced after 2 trials
   
    45:45:00: Balanced after 2 trials
   
    46:00:00: Balanced after 2 trials
   
    46:15:00: Balanced after 2 trials
   
    46:30:00: Balanced after 2 trials
   
    46:45:00: Balanced after 2 trials
   
    47:00:00: Balanced after 2 trials
   
    47:15:00: Balanced after 2 trials
   
    47:30:00: Balanced after 2 trials
   
    47:45:00: Balanced after 2 trials
   
    48:00:00: Balanced after 2 trials
   
    48:15:00: Balanced after 2 trials
   
    48:30:00: Balanced after 2 trials
   
    48:45:00: Balanced after 2 trials
   
    49:00:00: Balanced after 2 trials
   
    49:15:00: Balanced after 2 trials
   
    49:30:00: Balanced after 2 trials
   
    49:45:00: Balanced after 2 trials
   
    50:00:00: Balanced after 2 trials
   
    50:15:00: Balanced after 2 trials
   
    50:30:00: Balanced after 2 trials
   
    50:45:00: Balanced after 2 trials
   
    51:00:00: Balanced after 2 trials
   
    51:15:00: Balanced after 2 trials
   
    51:30:00: Balanced after 2 trials
   
    51:45:00: Balanced after 2 trials
   
    52:00:00: Balanced after 2 trials
   
    52:15:00: Balanced after 2 trials
   
    52:30:00: Balanced after 2 trials
   
    52:45:00: Balanced after 2 trials
   
    53:00:00: Balanced after 2 trials
   
    53:15:00: Balanced after 2 trials
   
    53:30:00: Balanced after 2 trials
   
    53:45:00: Balanced after 2 trials
   
    54:00:00: Balanced after 2 trials
   
    54:15:00: Balanced after 2 trials
   
    54:30:00: Balanced after 2 trials
   
    54:45:00: Balanced after 2 trials
   
    55:00:00: Balanced after 2 trials
   
    55:15:00: Balanced after 2 trials
   
    55:30:00: Balanced after 2 trials
   
    55:45:00: Balanced after 2 trials
   
    56:00:00: Balanced after 2 trials
   
    56:15:00: Balanced after 2 trials
   
    56:30:00: Balanced after 2 trials
   
    56:45:00: Balanced after 2 trials
   
    57:00:00: Balanced after 2 trials
   
    57:15:00: Balanced after 2 trials
   
    57:30:00: Balanced after 2 trials
   
    57:45:00: Balanced after 2 trials
   
    58:00:00: Balanced after 2 trials
   
    58:15:00: Balanced after 2 trials
   
    58:30:00: Balanced after 2 trials
   
    58:45:00: Balanced after 2 trials
   
    59:00:00: Balanced after 2 trials
   
    59:15:00: Balanced after 2 trials
   
    59:30:00: Balanced after 2 trials
   
    59:45:00: Balanced after 1 trials
   
    60:00:00: Balanced after 2 trials
   
    60:15:00: Balanced after 2 trials
   
    60:30:00: Balanced after 2 trials
   
    60:45:00: Balanced after 2 trials
   
    61:00:00: Balanced after 2 trials
   
    61:15:00: Balanced after 2 trials
   
    61:30:00: Balanced after 2 trials
   
    61:45:00: Balanced after 2 trials
   
    62:00:00: Balanced after 2 trials
   
    62:15:00: Balanced after 2 trials
   
    62:30:00: Balanced after 2 trials
   
    62:45:00: Balanced after 2 trials
   
    63:00:00: Balanced after 2 trials
   
    63:15:00: Balanced after 2 trials
   
    63:30:00: Balanced after 2 trials
   
    63:45:00: Balanced after 2 trials
   
    64:00:00: Balanced after 1 trials
   
    64:15:00: Balanced after 2 trials
   
    64:30:00: Balanced after 1 trials
   
    64:45:00: Balanced after 1 trials
   
    65:00:00: Balanced after 2 trials
   
    65:15:00: Balanced after 2 trials
   
    65:30:00: Balanced after 2 trials
   
    65:45:00: Balanced after 2 trials
   
    66:00:00: Balanced after 2 trials
   
    66:15:00: Balanced after 2 trials
   
    66:30:00: Balanced after 2 trials
   
    66:45:00: Balanced after 1 trials
   
    67:00:00: Balanced after 2 trials
   
    67:15:00: Balanced after 2 trials
   
    67:30:00: Balanced after 2 trials
   
    67:45:00: Balanced after 2 trials
   
    68:00:00: Balanced after 2 trials
   
    68:15:00: Balanced after 2 trials
   
    68:30:00: Balanced after 2 trials
   
    68:45:00: Balanced after 2 trials
   
    69:00:00: Balanced after 2 trials
   
    69:15:00: Balanced after 2 trials
   
    69:30:00: Balanced after 2 trials
   
    69:45:00: Balanced after 2 trials
   
    70:00:00: Balanced after 2 trials
   
    70:15:00: Balanced after 2 trials
   
    70:30:00: Balanced after 2 trials
   
    70:45:00: Balanced after 2 trials
   
    71:00:00: Balanced after 2 trials
   
    71:15:00: Balanced after 2 trials
   
    71:30:00: Balanced after 2 trials
   
    71:45:00: Balanced after 2 trials
   
    72:00:00: Balanced after 2 trials
   
    72:15:00: Balanced after 2 trials
   
    72:30:00: Balanced after 2 trials
   
    72:45:00: Balanced after 2 trials
   
    73:00:00: Balanced after 2 trials
   
    73:15:00: Balanced after 2 trials
   
    73:30:00: Balanced after 2 trials
   
    73:45:00: Balanced after 2 trials
   
    74:00:00: Balanced after 2 trials
   
    74:15:00: Balanced after 2 trials
   
    74:30:00: Balanced after 2 trials
   
    74:45:00: Balanced after 2 trials
   
    75:00:00: Balanced after 2 trials
   
    75:15:00: Balanced after 2 trials
   
    75:30:00: Balanced after 2 trials
   
    75:45:00: Balanced after 2 trials
   
    76:00:00: Balanced after 2 trials
   
    76:15:00: Balanced after 2 trials
   
    76:30:00: Balanced after 2 trials
   
    76:45:00: Balanced after 2 trials
   
    77:00:00: Balanced after 2 trials
   
    77:15:00: Balanced after 2 trials
   
    77:30:00: Balanced after 2 trials
   
    77:45:00: Balanced after 2 trials
   
    78:00:00: Balanced after 2 trials
   
    78:15:00: Balanced after 2 trials
   
    78:30:00: Balanced after 2 trials
   
    78:45:00: Balanced after 2 trials
   
    79:00:00: Balanced after 2 trials
   
    79:15:00: Balanced after 2 trials
   
    79:30:00: Balanced after 2 trials
   
    79:45:00: Balanced after 2 trials
   
    80:00:00: Balanced after 2 trials
   
    80:15:00: Balanced after 2 trials
   
    80:30:00: Balanced after 2 trials
   
    80:45:00: Balanced after 2 trials
   
    81:00:00: Balanced after 2 trials
   
    81:15:00: Balanced after 2 trials
   
    81:30:00: Balanced after 2 trials
   
    81:45:00: Balanced after 2 trials
   
    82:00:00: Balanced after 2 trials
   
    82:15:00: Balanced after 2 trials
   
    82:30:00: Balanced after 2 trials
   
    82:45:00: Balanced after 2 trials
   
    83:00:00: Balanced after 2 trials
   
    83:15:00: Balanced after 2 trials
   
    83:30:00: Balanced after 2 trials
   
    83:45:00: Balanced after 1 trials
   
    84:00:00: Balanced after 2 trials
   
    84:15:00: Balanced after 2 trials
   
    84:30:00: Balanced after 2 trials
   
    84:45:00: Balanced after 2 trials
   
    85:00:00: Balanced after 2 trials
   
    85:15:00: Balanced after 2 trials
   
    85:30:00: Balanced after 2 trials
   
    85:45:00: Balanced after 2 trials
   
    86:00:00: Balanced after 2 trials
   
    86:15:00: Balanced after 2 trials
   
    86:30:00: Balanced after 2 trials
   
    86:45:00: Balanced after 2 trials
   
    87:00:00: Balanced after 2 trials
   
    87:15:00: Balanced after 2 trials
   
    87:30:00: Balanced after 2 trials
   
    87:45:00: Balanced after 2 trials
   
    88:00:00: Balanced after 1 trials
   
    88:15:00: Balanced after 2 trials
   
    88:30:00: Balanced after 1 trials
   
    88:45:00: Balanced after 1 trials
   
    89:00:00: Balanced after 2 trials
   
    89:15:00: Balanced after 2 trials
   
    89:30:00: Balanced after 2 trials
   
    89:45:00: Balanced after 2 trials
   
    90:00:00: Balanced after 2 trials
   
    90:15:00: Balanced after 2 trials
   
    90:30:00: Balanced after 2 trials
   
    90:45:00: Balanced after 1 trials
   
    91:00:00: Balanced after 2 trials
   
    91:15:00: Balanced after 2 trials
   
    91:30:00: Balanced after 2 trials
   
    91:45:00: Balanced after 2 trials
   
    92:00:00: Balanced after 2 trials
   
    92:15:00: Balanced after 2 trials
   
    92:30:00: Balanced after 2 trials
   
    92:45:00: Balanced after 2 trials
   
    93:00:00: Balanced after 2 trials
   
    93:15:00: Balanced after 2 trials
   
    93:30:00: Balanced after 2 trials
   
    93:45:00: Balanced after 2 trials
   
    94:00:00: Balanced after 2 trials
   
    94:15:00: Balanced after 2 trials
   
    94:30:00: Balanced after 2 trials
   
    94:45:00: Balanced after 2 trials
   
    95:00:00: Balanced after 2 trials
   
    95:15:00: Balanced after 2 trials
   
    95:30:00: Balanced after 2 trials
   
    95:45:00: Balanced after 2 trials
   
    96:00:00: Balanced after 2 trials
   
    96:15:00: Balanced after 2 trials
   
    96:30:00: Balanced after 2 trials
   
    96:45:00: Balanced after 2 trials
   
    97:00:00: Balanced after 2 trials
   
    97:15:00: Balanced after 2 trials
   
    97:30:00: Balanced after 2 trials
   
    97:45:00: Balanced after 2 trials
   
    98:00:00: Balanced after 2 trials
   
    98:15:00: Balanced after 2 trials
   
    98:30:00: Balanced after 2 trials
   
    98:45:00: Balanced after 2 trials
   
    99:00:00: Balanced after 2 trials
   
    99:15:00: Balanced after 2 trials
   
    99:30:00: Balanced after 2 trials
   
    99:45:00: Balanced after 2 trials
   
   100:00:00: Balanced after 2 trials
   
   100:15:00: Balanced after 2 trials
   
   100:30:00: Balanced after 2 trials
   
   100:45:00: Balanced after 2 trials
   
   101:00:00: Balanced after 2 trials
   
   101:15:00: Balanced after 2 trials
   
   101:30:00: Balanced after 2 trials
   
   101:45:00: Balanced after 2 trials
   
   102:00:00: Balanced after 2 trials
   
   102:15:00: Balanced after 2 trials
   
   102:30:00: Balanced after 2 trials
   
   102:45:00: Balanced after 2 trials
   
   103:00:00: Balanced after 2 trials
   
   103:15:00: Balanced after 2 trials
   
   103:30:00: Balanced after 2 trials
   
   103:45:00: Balanced after 2 trials
   
   104:00:00: Balanced after 2 trials
   
   104:15:00: Balanced after 2 trials
   
   104:30:00: Balanced after 2 trials
   
   104:45:00: Balanced after 2 trials
   
   105:00:00: Balanced after 2 trials
   
   105:15:00: Balanced after 2 trials
   
   105:30:00: Balanced after 2 trials
   
   105:45:00: Balanced after 2 trials
   
   106:00:00: Balanced after 2 trials
   
   106:15:00: Balanced after 2 trials
   
   106:30:00: Balanced after 2 trials
   
   106:45:00: Balanced after 2 trials
   
   107:00:00: Balanced after 2 trials
   
   107:15:00: Balanced after 2 trials
   
   107:30:00: Balanced after 2 trials
   
   107:45:00: Balanced after 1 trials
   
   108:00:00: Balanced after 2 trials
   
   108:15:00: Balanced after 2 trials
   
   108:30:00: Balanced after 2 trials
   
   108:45:00: Balanced after 2 trials
   
   109:00:00: Balanced after 2 trials
   
   109:15:00: Balanced after 2 trials
   
   109:30:00: Balanced after 2 trials
   
   109:45:00: Balanced after 2 trials
   
   110:00:00: Balanced after 2 trials
   
   110:15:00: Balanced after 2 trials
   
   110:30:00: Balanced after 2 trials
   
   110:45:00: Balanced after 2 trials
   
   111:00:00: Balanced after 2 trials
   
   111:15:00: Balanced after 2 trials
   
   111:30:00: Balanced after 2 trials
   
   111:45:00: Balanced after 2 trials
   
   112:00:00: Balanced after 1 trials
   
   112:15:00: Balanced after 2 trials
   
   112:30:00: Balanced after 1 trials
   
   112:45:00: Balanced after 1 trials
   
   113:00:00: Balanced after 2 trials
   
   113:15:00: Balanced after 2 trials
   
   113:30:00: Balanced after 2 trials
   
   113:45:00: Balanced after 2 trials
   
   114:00:00: Balanced after 2 trials
   
   114:15:00: Balanced after 2 trials
   
   114:30:00: Balanced after 2 trials
   
   114:45:00: Balanced after 1 trials
   
   115:00:00: Balanced after 2 trials
   
   115:15:00: Balanced after 2 trials
   
   115:30:00: Balanced after 2 trials
   
   115:45:00: Balanced after 2 trials
   
   116:00:00: Balanced after 2 trials
   
   116:15:00: Balanced after 2 trials
   
   116:30:00: Balanced after 2 trials
   
   116:45:00: Balanced after 2 trials
   
   117:00:00: Balanced after 2 trials
   
   117:15:00: Balanced after 2 trials
   
   117:30:00: Balanced after 2 trials
   
   117:45:00: Balanced after 2 trials
   
   118:00:00: Balanced after 2 trials
   
   118:15:00: Balanced after 2 trials
   
   118:30:00: Balanced after 2 trials
   
   118:45:00: Balanced after 2 trials
   
   119:00:00: Balanced after 2 trials
   
   119:15:00: Balanced after 2 trials
   
   119:30:00: Balanced after 2 trials
   
   119:45:00: Balanced after 2 trials
   
   120:00:00: Balanced after 2 trials
   
   120:15:00: Balanced after 2 trials
   
   120:30:00: Balanced after 2 trials
   
   120:45:00: Balanced after 2 trials
   
   121:00:00: Balanced after 2 trials
   
   121:15:00: Balanced after 2 trials
   
   121:30:00: Balanced after 2 trials
   
   121:45:00: Balanced after 2 trials
   
   122:00:00: Balanced after 2 trials
   
   122:15:00: Balanced after 2 trials
   
   122:30:00: Balanced after 2 trials
   
   122:45:00: Balanced after 2 trials
   
   123:00:00: Balanced after 2 trials
   
   123:15:00: Balanced after 2 trials
   
   123:30:00: Balanced after 2 trials
   
   123:45:00: Balanced after 2 trials
   
   124:00:00: Balanced after 2 trials
   
   124:15:00: Balanced after 2 trials
   
   124:30:00: Balanced after 2 trials
   
   124:45:00: Balanced after 2 trials
   
   125:00:00: Balanced after 2 trials
   
   125:15:00: Balanced after 2 trials
   
   125:30:00: Balanced after 2 trials
   
   125:45:00: Balanced after 2 trials
   
   126:00:00: Balanced after 2 trials
   
   126:15:00: Balanced after 2 trials
   
   126:30:00: Balanced after 2 trials
   
   126:45:00: Balanced after 2 trials
   
   127:00:00: Balanced after 2 trials
   
   127:15:00: Balanced after 2 trials
   
   127:30:00: Balanced after 2 trials
   
   127:45:00: Balanced after 2 trials
   
   128:00:00: Balanced after 2 trials
   
   128:15:00: Balanced after 2 trials
   
   128:30:00: Balanced after 2 trials
   
   128:45:00: Balanced after 2 trials
   
   129:00:00: Balanced after 2 trials
   
   129:15:00: Balanced after 2 trials
   
   129:30:00: Balanced after 2 trials
   
   129:45:00: Balanced after 2 trials
   
   130:00:00: Balanced after 2 trials
   
   130:15:00: Balanced after 2 trials
   
   130:30:00: Balanced after 2 trials
   
   130:45:00: Balanced after 2 trials
   
   131:00:00: Balanced after 2 trials
   
   131:15:00: Balanced after 2 trials
   
   131:30:00: Balanced after 2 trials
   
   131:45:00: Balanced after 1 trials
   
   132:00:00: Balanced after 2 trials
   
   132:15:00: Balanced after 2 trials
   
   132:30:00: Balanced after 2 trials
   
   132:45:00: Balanced after 2 trials
   
   133:00:00: Balanced after 2 trials
   
   133:15:00: Balanced after 2 trials
   
   133:30:00: Balanced after 2 trials
   
   133:45:00: Balanced after 2 trials
   
   134:00:00: Balanced after 2 trials
   
   134:15:00: Balanced after 2 trials
   
   134:30:00: Balanced after 2 trials
   
   134:45:00: Balanced after 2 trials
   
   135:00:00: Balanced after 2 trials
   
   135:15:00: Balanced after 2 trials
   
   135:30:00: Balanced after 2 trials
   
   135:45:00: Balanced after 2 trials
   
   136:00:00: Balanced after 1 trials
   
   136:15:00: Balanced after 2 trials
   
   136:30:00: Balanced after 1 trials
   
   136:45:00: Balanced after 1 trials
   
   137:00:00: Balanced after 2 trials
   
   137:15:00: Balanced after 2 trials
   
   137:30:00: Balanced after 2 trials
   
   137:45:00: Balanced after 2 trials
   
   138:00:00: Balanced after 2 trials
   
   138:15:00: Balanced after 2 trials
   
   138:30:00: Balanced after 2 trials
   
   138:45:00: Balanced after 1 trials
   
   139:00:00: Balanced after 2 trials
   
   139:15:00: Balanced after 2 trials
   
   139:30:00: Balanced after 2 trials
   
   139:45:00: Balanced after 2 trials
   
   140:00:00: Balanced after 2 trials
   
   140:15:00: Balanced after 2 trials
   
   140:30:00: Balanced after 2 trials
   
   140:45:00: Balanced after 2 trials
   
   141:00:00: Balanced after 2 trials
   
   141:15:00: Balanced after 2 trials
   
   141:30:00: Balanced after 2 trials
   
   141:45:00: Balanced after 2 trials
   
   142:00:00: Balanced after 2 trials
   
   142:15:00: Balanced after 2 trials
   
   142:30:00: Balanced after 2 trials
   
   142:45:00: Balanced after 2 trials
   
   143:00:00: Balanced after 2 trials
   
   143:15:00: Balanced after 2 trials
   
   143:30:00: Balanced after 2 trials
   
   143:45:00: Balanced after 2 trials
   
   144:00:00: Balanced after 2 trials
   
   144:15:00: Balanced after 2 trials
   
   144:30:00: Balanced after 2 trials
   
   144:45:00: Balanced after 2 trials
   
   145:00:00: Balanced after 2 trials
   
   145:15:00: Balanced after 2 trials
   
   145:30:00: Balanced after 2 trials
   
   145:45:00: Balanced after 2 trials
   
   146:00:00: Balanced after 2 trials
   
   146:15:00: Balanced after 2 trials
   
   146:30:00: Balanced after 2 trials
   
   146:45:00: Balanced after 2 trials
   
   147:00:00: Balanced after 2 trials
   
   147:15:00: Balanced after 2 trials
   
   147:30:00: Balanced after 2 trials
   
   147:45:00: Balanced after 2 trials
   
   148:00:00: Balanced after 2 trials
   
   148:15:00: Balanced after 2 trials
   
   148:30:00: Balanced after 2 trials
   
   148:45:00: Balanced after 2 trials
   
   149:00:00: Balanced after 2 trials
   
   149:15:00: Balanced after 2 trials
   
   149:30:00: Balanced after 2 trials
   
   149:45:00: Balanced after 2 trials
   
   150:00:00: Balanced after 2 trials
   
   150:15:00: Balanced after 2 trials
   
   150:30:00: Balanced after 2 trials
   
   150:45:00: Balanced after 2 trials
   
   151:00:00: Balanced after 2 trials
   
   151:15:00: Balanced after 2 trials
   
   151:30:00: Balanced after 2 trials
   
   151:45:00: Balanced after 2 trials
   
   152:00:00: Balanced after 2 trials
   
   152:15:00: Balanced after 2 trials
   
   152:30:00: Balanced after 2 trials
   
   152:45:00: Balanced after 2 trials
   
   153:00:00: Balanced after 2 trials
   
   153:15:00: Balanced after 2 trials
   
   153:30:00: Balanced after 2 trials
   
   153:45:00: Balanced after 2 trials
   
   154:00:00: Balanced after 2 trials
   
   154:15:00: Balanced after 2 trials
   
   154:30:00: Balanced after 2 trials
   
   154:45:00: Balanced after 2 trials
   
   155:00:00: Balanced after 2 trials
   
   155:15:00: Balanced after 2 trials
   
   155:30:00: Balanced after 2 trials
   
   155:45:00: Balanced after 1 trials
   
   156:00:00: Balanced after 2 trials
   
   156:15:00: Balanced after 2 trials
   
   156:30:00: Balanced after 2 trials
   
   156:45:00: Balanced after 2 trials
   
   157:00:00: Balanced after 2 trials
   
   157:15:00: Balanced after 2 trials
   
   157:30:00: Balanced after 2 trials
   
   157:45:00: Balanced after 2 trials
   
   158:00:00: Balanced after 2 trials
   
   158:15:00: Balanced after 2 trials
   
   158:30:00: Balanced after 2 trials
   
   158:45:00: Balanced after 2 trials
   
   159:00:00: Balanced after 2 trials
   
   159:15:00: Balanced after 2 trials
   
   159:30:00: Balanced after 2 trials
   
   159:45:00: Balanced after 2 trials
   
   160:00:00: Balanced after 1 trials
   
   160:15:00: Balanced after 2 trials
   
   160:30:00: Balanced after 1 trials
   
   160:45:00: Balanced after 1 trials
   
   161:00:00: Balanced after 2 trials
   
   161:15:00: Balanced after 2 trials
   
   161:30:00: Balanced after 2 trials
   
   161:45:00: Balanced after 2 trials
   
   162:00:00: Balanced after 2 trials
   
   162:15:00: Balanced after 2 trials
   
   162:30:00: Balanced after 2 trials
   
   162:45:00: Balanced after 1 trials
   
   163:00:00: Balanced after 2 trials
   
   163:15:00: Balanced after 2 trials
   
   163:30:00: Balanced after 2 trials
   
   163:45:00: Balanced after 2 trials
   
   164:00:00: Balanced after 2 trials
   
   164:15:00: Balanced after 2 trials
   
   164:30:00: Balanced after 2 trials
   
   164:45:00: Balanced after 2 trials
   
   165:00:00: Balanced after 2 trials
   
   165:15:00: Balanced after 2 trials
   
   165:30:00: Balanced after 2 trials
   
   165:45:00: Balanced after 2 trials
   
   166:00:00: Balanced after 2 trials
   
   166:15:00: Balanced after 2 trials
   
   166:30:00: Balanced after 2 trials
   
   166:45:00: Balanced after 2 trials
   
   167:00:00: Balanced after 2 trials
   
   167:15:00: Balanced after 2 trials
   
   167:30:00: Balanced after 2 trials
   
   167:45:00: Balanced after 2 trials
   
  Water Quality Mass Balance (mg)
  ================================
  Initial Mass:       0.00000e+00
  Mass Inflow:        5.78741e+07
  Mass Outflow:       5.68444e+07
  Mass Reacted:       0.00000e+00
  Final Mass:         1.02895e+06
  Mass Ratio:         0.99999
  ================================

  Analysis ended Sat Jan  6 10:06:34 2024
